A71EV2A-x2304_A_246_v1
     RDKit          3D

 18 20  0  0  0  0  0  0  0  0999 V2000
   10.5340   14.5800   23.8900 O   0  0  0  0  0  0  0  0  0  0  0  0
   10.5750   13.5840   23.1510 C   0  0  0  0  0  0  0  0  0  0  0  0
   11.1850   13.5790   21.9340 N   0  0  0  0  0  0  0  0  0  0  0  0
   11.7460   14.7070   21.3050 C   0  0  0  0  0  0  0  0  0  0  0  0
   12.1360   15.9270   21.8210 C   0  0  0  0  0  0  0  0  0  0  0  0
   12.5930   16.6450   20.7880 N   0  0  0  0  0  0  0  0  0  0  0  0
   12.5190   15.9590   19.6320 N   0  0  0  0  0  0  0  0  0  0  0  0
   11.9900   14.7740   19.9310 C   0  0  0  0  0  0  0  0  0  0  0  0
    9.9640   12.2700   23.5710 C   0  0  0  0  0  0  0  0  0  0  0  0
   10.2960   11.1360   22.9480 N   0  0  0  0  0  0  0  0  0  0  0  0
    8.9450   12.0360   24.5480 C   0  0  0  0  0  0  0  0  0  0  0  0
    8.6800   10.6590   24.4630 C   0  0  0  0  0  0  0  0  0  0  0  0
    9.5010   10.1600   23.4960 N   0  0  0  0  0  0  0  0  0  0  0  0
    9.6760    8.7710   23.1010 C   0  0  0  0  0  0  0  0  0  0  0  0
    7.7300   10.0430   25.2720 C   0  0  0  0  0  0  0  0  0  0  0  0
    7.0310   10.8400   26.1760 C   0  0  0  0  0  0  0  0  0  0  0  0
    7.2790   12.2020   26.2640 C   0  0  0  0  0  0  0  0  0  0  0  0
    8.2270   12.8130   25.4600 C   0  0  0  0  0  0  0  0  0  0  0  0
 14 13  1  0
 13 10  1  0
 10  9  2  0
  9  2  1  0
  2  1  2  0
  3  2  1  0
  4  3  1  0
  4  8  1  0
  8  7  2  0
  7  6  1  0
  6  5  1  0
  5  4  2  0
 11  9  1  0
 11 18  2  0
 18 17  1  0
 17 16  2  0
 16 15  1  0
 15 12  2  0
 12 11  1  0
 13 12  1  0
M  END
>  <id>  (1) 
124

>  <inchikey>  (1) 
JXKYXHWVMLLNCD-UHFFFAOYSA-N

>  <alias>  (1) 
A2304a

>  <name>  (1) 
A2304a

>  <smiles>  (1) 
Cn1nc(C(=O)Nc2cn[nH]c2)c2ccccc21

>  <path>  (1) 
/opt/xchem-fragalysis-2/maxwin/2A_HIPPO/aligned_files/A2304a/A2304a.pdb

>  <distance_score>  (1) 
None

>  <energy_score>  (1) 
None

>  <compound>  (1) 
JXKYXHWVMLLNCD-UHFFFAOYSA-N

>  <compound_id>  (1) 
99

>  <target>  (1) 
A71EV2A

$$$$
