A71EV2A-x2351_A_246_v1
     RDKit          3D

 14 15  0  0  0  0  0  0  0  0999 V2000
    5.1730   13.3190   26.1530 F   0  0  0  0  0  0  0  0  0  0  0  0
    5.9990   12.5460   25.4040 C   0  0  0  0  0  0  0  0  0  0  0  0
    6.9450   13.1780   24.6270 C   0  0  0  0  0  0  0  0  0  0  0  0
    5.8590   11.1790   25.4850 C   0  0  0  0  0  0  0  0  0  0  0  0
    6.7260   10.3800   24.7600 C   0  0  0  0  0  0  0  0  0  0  0  0
    7.6930   10.9830   23.9710 C   0  0  0  0  0  0  0  0  0  0  0  0
    8.6550   10.4580   23.1600 N   0  0  0  0  0  0  0  0  0  0  0  0
    8.9010    9.0580   22.8560 C   0  0  0  0  0  0  0  0  0  0  0  0
    7.8120   12.3730   23.8930 C   0  0  0  0  0  0  0  0  0  0  0  0
    8.9100   12.5970   22.9920 C   0  0  0  0  0  0  0  0  0  0  0  0
    9.4090   11.4400   22.5550 N   0  0  0  0  0  0  0  0  0  0  0  0
    9.4830   13.9080   22.5880 C   0  0  0  0  0  0  0  0  0  0  0  0
    8.9640   14.9590   22.9910 O   0  0  0  0  0  0  0  0  0  0  0  0
   10.5680   13.8940   21.8210 N   0  0  0  0  0  0  0  0  0  0  0  0
  8  7  1  0
  7 11  1  0
 11 10  2  0
 12 10  1  0
 14 12  1  0
 13 12  2  0
 10  9  1  0
  9  3  1  0
  3  2  2  0
  2  1  1  0
  4  2  1  0
  5  4  2  0
  6  5  1  0
  9  6  2  0
  7  6  1  0
M  END
>  <id>  (1) 
126

>  <inchikey>  (1) 
GDGNASXSZYDGJM-UHFFFAOYSA-N

>  <alias>  (1) 
A2351a

>  <name>  (1) 
A2351a

>  <smiles>  (1) 
Cn1nc(C(N)=O)c2cc(F)ccc21

>  <path>  (1) 
/opt/xchem-fragalysis-2/maxwin/2A_HIPPO/aligned_files/A2351a/A2351a.pdb

>  <distance_score>  (1) 
None

>  <energy_score>  (1) 
None

>  <compound>  (1) 
GDGNASXSZYDGJM-UHFFFAOYSA-N

>  <compound_id>  (1) 
101

>  <target>  (1) 
A71EV2A

$$$$
