A71EV2A-x2454_A_246_v1
     RDKit          3D

 14 14  0  0  0  0  0  0  0  0999 V2000
    5.1240   13.4990   26.7730 O   0  0  0  0  0  0  0  0  0  0  0  0
    5.9280   13.1980   25.8810 C   0  0  0  0  0  0  0  0  0  0  0  0
    6.1550   13.9830   24.8260 N   0  0  0  0  0  0  0  0  0  0  0  0
    6.6020   12.0080   25.8970 N   0  0  0  0  0  0  0  0  0  0  0  0
    7.5470   11.4870   24.9810 C   0  0  0  0  0  0  0  0  0  0  0  0
    7.4660   10.1390   24.6580 C   0  0  0  0  0  0  0  0  0  0  0  0
    8.3680    9.5870   23.7650 C   0  0  0  0  0  0  0  0  0  0  0  0
    9.3540   10.3680   23.1840 C   0  0  0  0  0  0  0  0  0  0  0  0
    8.5430   12.2740   24.4080 C   0  0  0  0  0  0  0  0  0  0  0  0
    9.4410   11.7180   23.5010 C   0  0  0  0  0  0  0  0  0  0  0  0
   10.4340   12.5350   22.9130 N   0  0  0  0  0  0  0  0  0  0  0  0
   11.0830   13.5850   23.4740 C   0  0  0  0  0  0  0  0  0  0  0  0
   11.0920   13.7920   24.6850 O   0  0  0  0  0  0  0  0  0  0  0  0
   11.7770   14.4970   22.5070 C   0  0  0  0  0  0  0  0  0  0  0  0
 14 12  1  0
 13 12  2  0
 12 11  1  0
 11 10  1  0
 10  8  1  0
  8  7  2  0
  7  6  1  0
  6  5  2  0
  5  4  1  0
  4  2  1  0
  3  2  1  0
  2  1  2  0
  9  5  1  0
 10  9  2  0
M  END
>  <id>  (1) 
128

>  <inchikey>  (1) 
GVNXANNAMKHSRF-UHFFFAOYSA-N

>  <alias>  (1) 
A2454a

>  <name>  (1) 
A2454a

>  <smiles>  (1) 
CC(=O)Nc1cccc(NC(N)=O)c1

>  <path>  (1) 
/opt/xchem-fragalysis-2/maxwin/2A_HIPPO/aligned_files/A2454a/A2454a.pdb

>  <distance_score>  (1) 
None

>  <energy_score>  (1) 
None

>  <compound>  (1) 
GVNXANNAMKHSRF-UHFFFAOYSA-N

>  <compound_id>  (1) 
70

>  <target>  (1) 
A71EV2A

$$$$
