A71EV2A-x3066_A_301_v1
     RDKit          3D

 14 15  0  0  0  0  0  0  0  0999 V2000
   10.4280   14.3440   24.4700 O   0  0  0  0  0  0  0  0  0  0  0  0
   10.3360   13.5590   23.5270 C   0  0  0  0  0  0  0  0  0  0  0  0
   10.9190   13.7850   22.3570 N   0  0  0  0  0  0  0  0  0  0  0  0
   11.7390   14.9650   22.1240 C   0  0  0  0  0  0  0  0  0  0  0  0
    9.6170   12.2790   23.6740 C   0  0  0  0  0  0  0  0  0  0  0  0
    8.5310   11.9840   24.5780 C   0  0  0  0  0  0  0  0  0  0  0  0
    8.2650   10.6100   24.4540 C   0  0  0  0  0  0  0  0  0  0  0  0
    9.1310   10.0920   23.5120 N   0  0  0  0  0  0  0  0  0  0  0  0
    9.2310    8.6940   23.1140 C   0  0  0  0  0  0  0  0  0  0  0  0
    9.9230   11.1040   23.0490 C   0  0  0  0  0  0  0  0  0  0  0  0
    7.7660   12.7460   25.4660 C   0  0  0  0  0  0  0  0  0  0  0  0
    6.7680   12.1330   26.2030 C   0  0  0  0  0  0  0  0  0  0  0  0
    6.5260   10.7660   26.0740 C   0  0  0  0  0  0  0  0  0  0  0  0
    7.2720    9.9890   25.1980 C   0  0  0  0  0  0  0  0  0  0  0  0
  4  3  1  0
  3  2  1  0
  2  1  2  0
  5  2  1  0
  5 10  2  0
 10  8  1  0
  9  8  1  0
  8  7  1  0
  7 14  2  0
 14 13  1  0
 13 12  2  0
 12 11  1  0
 11  6  2  0
  6  5  1  0
  7  6  1  0
M  END
>  <id>  (1) 
107

>  <inchikey>  (1) 
OHXYWSIWHXTWCT-UHFFFAOYSA-N

>  <alias>  (1) 
A3066a

>  <name>  (1) 
A3066a

>  <smiles>  (1) 
CNC(=O)c1cn(C)c2ccccc12

>  <path>  (1) 
/opt/xchem-fragalysis-2/maxwin/2A_HIPPO/aligned_files/A3066a/A3066a.pdb

>  <distance_score>  (1) 
None

>  <energy_score>  (1) 
None

>  <compound>  (1) 
OHXYWSIWHXTWCT-UHFFFAOYSA-N

>  <compound_id>  (1) 
6

>  <target>  (1) 
A71EV2A

$$$$
