A71EV2A-x3178_A_201_v1
     RDKit          3D

 18 20  0  0  0  0  0  0  0  0999 V2000
    8.6530   14.8570   24.0090 O   0  0  0  0  0  0  0  0  0  0  0  0
    9.0700   13.8830   23.3510 C   0  0  0  0  0  0  0  0  0  0  0  0
    9.8220   14.0260   22.2590 N   0  0  0  0  0  0  0  0  0  0  0  0
   10.2200   15.3550   21.7920 C   0  0  2  0  0  0  0  0  0  0  0  0
    9.7570   15.7020   20.3740 C   0  0  0  0  0  0  0  0  0  0  0  0
   10.8940   15.3870   19.5240 O   0  0  0  0  0  0  0  0  0  0  0  0
   12.0540   15.3700   20.3500 C   0  0  0  0  0  0  0  0  0  0  0  0
   11.7000   15.5230   21.7840 C   0  0  0  0  0  0  0  0  0  0  0  0
    8.6700   12.4920   23.7180 C   0  0  0  0  0  0  0  0  0  0  0  0
    9.2580   11.4480   23.1250 N   0  0  0  0  0  0  0  0  0  0  0  0
    7.6470   12.0540   24.6290 C   0  0  0  0  0  0  0  0  0  0  0  0
    7.6640   10.6520   24.5360 C   0  0  0  0  0  0  0  0  0  0  0  0
    8.6250   10.3290   23.6230 N   0  0  0  0  0  0  0  0  0  0  0  0
    9.0840    9.0010   23.2350 C   0  0  0  0  0  0  0  0  0  0  0  0
    6.8110    9.8590   25.2940 C   0  0  0  0  0  0  0  0  0  0  0  0
    5.9110   10.4860   26.1520 C   0  0  0  0  0  0  0  0  0  0  0  0
    5.8660   11.8800   26.2360 C   0  0  0  0  0  0  0  0  0  0  0  0
    6.7330   12.6670   25.4900 C   0  0  0  0  0  0  0  0  0  0  0  0
 14 13  1  0
 13 10  1  0
 10  9  2  0
  9  2  1  0
  2  1  2  0
  3  2  1  0
  4  3  1  6
  4  8  1  0
  8  7  1  0
  7  6  1  0
  6  5  1  0
  5  4  1  0
 11  9  1  0
 11 18  2  0
 18 17  1  0
 17 16  2  0
 16 15  1  0
 15 12  2  0
 12 11  1  0
 13 12  1  0
M  END
>  <id>  (1) 
138

>  <inchikey>  (1) 
OUXJTKZWAHXWFL-VIFPVBQESA-N

>  <alias>  (1) 
A3178a

>  <name>  (1) 
A3178a

>  <smiles>  (1) 
Cn1nc(C(=O)N[C@H]2CCOC2)c2ccccc21

>  <path>  (1) 
/opt/xchem-fragalysis-2/maxwin/2A_HIPPO/aligned_files/A3178a/A3178a.pdb

>  <distance_score>  (1) 
None

>  <energy_score>  (1) 
None

>  <compound>  (1) 
OUXJTKZWAHXWFL-UHFFFAOYSA-N

>  <compound_id>  (1) 
110

>  <target>  (1) 
A71EV2A

$$$$
