A71EV2A-x3181_A_201_v1
     RDKit          3D

 20 22  0  0  0  0  0  0  0  0999 V2000
    9.6840   14.3400   24.9560 O   0  0  0  0  0  0  0  0  0  0  0  0
    9.8560   13.4780   24.0930 C   0  0  0  0  0  0  0  0  0  0  0  0
    9.1400   12.1620   24.1800 C   0  0  0  0  0  0  0  0  0  0  0  0
    9.6050   11.1460   23.4560 N   0  0  0  0  0  0  0  0  0  0  0  0
    8.0600   11.7370   25.0270 C   0  0  0  0  0  0  0  0  0  0  0  0
    7.9170   10.3680   24.7660 C   0  0  0  0  0  0  0  0  0  0  0  0
    6.9700    9.5890   25.4240 C   0  0  0  0  0  0  0  0  0  0  0  0
    6.1740   10.2060   26.3810 C   0  0  0  0  0  0  0  0  0  0  0  0
    6.3180   11.5670   26.6620 C   0  0  0  0  0  0  0  0  0  0  0  0
    7.2340   12.3460   25.9740 C   0  0  0  0  0  0  0  0  0  0  0  0
    8.8550   10.0490   23.8340 N   0  0  0  0  0  0  0  0  0  0  0  0
    9.1350    8.7510   23.2370 C   0  0  0  0  0  0  0  0  0  0  0  0
   10.6830   13.6040   23.0530 N   0  0  0  0  0  0  0  0  0  0  0  0
   11.6880   14.6620   22.9860 C   0  0  0  0  0  0  0  0  0  0  0  0
   12.0010   15.0370   21.5560 C   0  0  0  0  0  0  0  0  0  0  0  0
   10.8880   15.7090   20.8920 N   0  0  0  0  0  0  0  0  0  0  0  0
   10.2860   16.7900   21.4520 N   0  0  0  0  0  0  0  0  0  0  0  0
    9.3960   17.1150   20.5390 C   0  0  0  0  0  0  0  0  0  0  0  0
    9.3920   16.3360   19.4330 N   0  0  0  0  0  0  0  0  0  0  0  0
   10.3400   15.4660   19.7030 C   0  0  0  0  0  0  0  0  0  0  0  0
 12 11  1  0
 11  4  1  0
  4  3  2  0
  3  2  1  0
  2  1  2  0
 13  2  1  0
 14 13  1  0
 15 14  1  0
 16 15  1  0
 16 20  1  0
 20 19  2  0
 19 18  1  0
 18 17  2  0
 17 16  1  0
  5  3  1  0
  5 10  2  0
 10  9  1  0
  9  8  2  0
  8  7  1  0
  7  6  2  0
  6  5  1  0
 11  6  1  0
M  END
>  <id>  (1) 
139

>  <inchikey>  (1) 
UIOOLKZMABSWFR-UHFFFAOYSA-N

>  <alias>  (1) 
A3181a

>  <name>  (1) 
A3181a

>  <smiles>  (1) 
Cn1nc(C(=O)NCCn2cncn2)c2ccccc21

>  <path>  (1) 
/opt/xchem-fragalysis-2/maxwin/2A_HIPPO/aligned_files/A3181a/A3181a.pdb

>  <distance_score>  (1) 
None

>  <energy_score>  (1) 
None

>  <compound>  (1) 
UIOOLKZMABSWFR-UHFFFAOYSA-N

>  <compound_id>  (1) 
111

>  <target>  (1) 
A71EV2A

$$$$
