A71EV2A-x3379_A_201_v1
     RDKit          3D

 21 23  0  0  0  0  0  0  0  0999 V2000
    8.9700   14.3490   24.9180 O   0  0  0  0  0  0  0  0  0  0  0  0
    9.2830   13.4840   24.0910 C   0  0  0  0  0  0  0  0  0  0  0  0
    8.7430   12.1090   24.2100 C   0  0  0  0  0  0  0  0  0  0  0  0
    7.7110   11.6220   25.0820 C   0  0  0  0  0  0  0  0  0  0  0  0
    6.8530   12.1770   26.0360 C   0  0  0  0  0  0  0  0  0  0  0  0
    5.9640   11.3520   26.7110 C   0  0  0  0  0  0  0  0  0  0  0  0
    5.9170    9.9860   26.4480 C   0  0  0  0  0  0  0  0  0  0  0  0
    6.7510    9.4230   25.4890 C   0  0  0  0  0  0  0  0  0  0  0  0
    7.6370   10.2510   24.8150 C   0  0  0  0  0  0  0  0  0  0  0  0
    8.5610    9.9860   23.8500 N   0  0  0  0  0  0  0  0  0  0  0  0
    9.0020    8.6900   23.3600 C   0  0  0  0  0  0  0  0  0  0  0  0
    9.2210   11.1250   23.4440 N   0  0  0  0  0  0  0  0  0  0  0  0
   10.1470   13.7040   23.0910 N   0  0  0  0  0  0  0  0  0  0  0  0
   11.1980   14.7040   23.2880 C   0  0  1  0  0  0  0  0  0  0  0  0
   12.2830   14.1770   24.2090 C   0  0  0  0  0  0  0  0  0  0  0  0
   11.7400   14.9930   21.8950 C   0  0  0  0  0  0  0  0  0  0  0  0
   10.7600   15.6850   21.0100 C   0  0  0  0  0  0  0  0  0  0  0  0
   10.0500   16.7970   21.4620 N   0  0  0  0  0  0  0  0  0  0  0  0
    9.3090   17.1180   20.4660 C   0  0  0  0  0  0  0  0  0  0  0  0
    9.4560   16.3460   19.3650 O   0  0  0  0  0  0  0  0  0  0  0  0
   10.3750   15.4130   19.7540 C   0  0  0  0  0  0  0  0  0  0  0  0
  2  1  2  0
  3  2  1  0
  4  3  1  0
  5  4  2  0
  6  5  1  0
  7  6  2  0
  8  7  1  0
  9  8  2  0
  9  4  1  0
 10  9  1  0
 11 10  1  0
 12 10  1  0
 12  3  2  0
 13  2  1  0
 14 13  1  0
 14 15  1  1
 16 14  1  0
 17 16  1  0
 18 17  1  0
 19 18  2  0
 20 19  1  0
 21 20  1  0
 21 17  2  0
M  END
>  <id>  (1) 
207347

>  <inchikey>  (1) 
LQNOWDAJBFJAFM-JTQLQIEISA-N

>  <alias>  (1) 
A3379a

>  <name>  (1) 
A3379a

>  <smiles>  (1) 
C[C@@H](Cc1cocn1)NC(=O)c1nn(C)c2ccccc12

>  <path>  (1) 
/opt/xchem-fragalysis-2/maxwin/2A_HIPPO/A71EV2A_P3only_20241209/aligned_files/A3379a/A3379a.pdb

>  <distance_score>  (1) 
None

>  <energy_score>  (1) 
None

>  <compound>  (1) 
LQNOWDAJBFJAFM-UHFFFAOYSA-N

>  <compound_id>  (1) 
122392

>  <target>  (1) 
A71EV2A

$$$$
