A71EV2A-x3392_A_201_v1
     RDKit          3D

 19 21  0  0  0  0  0  0  0  0999 V2000
    9.7930   13.5800   25.3690 O   0  0  0  0  0  0  0  0  0  0  0  0
    9.7060   12.9560   24.3270 C   0  0  0  0  0  0  0  0  0  0  0  0
    8.8720   11.8230   24.2280 N   0  0  0  0  0  0  0  0  0  0  0  0
    7.8260   11.5100   25.1060 C   0  0  0  0  0  0  0  0  0  0  0  0
    7.0150   12.3640   25.8440 C   0  0  0  0  0  0  0  0  0  0  0  0
    6.0250   11.8150   26.6480 C   0  0  0  0  0  0  0  0  0  0  0  0
    5.8450   10.4460   26.7070 C   0  0  0  0  0  0  0  0  0  0  0  0
    6.6550    9.6020   25.9660 C   0  0  0  0  0  0  0  0  0  0  0  0
    7.6570   10.1310   25.1660 C   0  0  0  0  0  0  0  0  0  0  0  0
    8.6720    9.4470   24.2940 C   0  0  0  0  0  0  0  0  0  0  0  0
    9.3540   10.6020   23.5590 C   0  0  0  0  0  0  0  0  0  0  0  0
   10.3900   13.2420   23.2140 N   0  0  0  0  0  0  0  0  0  0  0  0
   11.1910   14.4560   23.1200 C   0  0  0  0  0  0  0  0  0  0  0  0
   11.7000   14.6870   21.7140 C   0  0  0  0  0  0  0  0  0  0  0  0
   10.6320   15.3750   20.9280 C   0  0  0  0  0  0  0  0  0  0  0  0
    9.9340   16.4560   21.4420 N   0  0  0  0  0  0  0  0  0  0  0  0
    9.1330   16.7840   20.4980 C   0  0  0  0  0  0  0  0  0  0  0  0
    9.2140   16.0320   19.3820 O   0  0  0  0  0  0  0  0  0  0  0  0
   10.1890   15.1290   19.6890 C   0  0  0  0  0  0  0  0  0  0  0  0
  2  1  2  0
  3  2  1  0
  4  3  1  0
  5  4  2  0
  6  5  1  0
  7  6  2  0
  8  7  1  0
  9  8  2  0
  9  4  1  0
 10  9  1  0
 11 10  1  0
 11  3  1  0
 12  2  1  0
 13 12  1  0
 14 13  1  0
 15 14  1  0
 16 15  1  0
 17 16  2  0
 18 17  1  0
 19 18  1  0
 19 15  2  0
M  END
>  <id>  (1) 
207348

>  <inchikey>  (1) 
CFBYKVAFAXYDRK-UHFFFAOYSA-N

>  <alias>  (1) 
A3392a

>  <name>  (1) 
A3392a

>  <smiles>  (1) 
O=C(NCCc1cocn1)N1CCc2ccccc21

>  <path>  (1) 
/opt/xchem-fragalysis-2/maxwin/2A_HIPPO/A71EV2A_P3only_20241209/aligned_files/A3392a/A3392a.pdb

>  <distance_score>  (1) 
None

>  <energy_score>  (1) 
None

>  <compound>  (1) 
CFBYKVAFAXYDRK-UHFFFAOYSA-N

>  <compound_id>  (1) 
122393

>  <target>  (1) 
A71EV2A

$$$$
