A71EV2A-x3403_A_201_v1
     RDKit          3D

 19 21  0  0  0  0  0  0  0  0999 V2000
   10.6800   14.9330   24.1660 O   0  0  0  0  0  0  0  0  0  0  0  0
   10.5440   14.3180   23.1200 C   0  0  0  0  0  0  0  0  0  0  0  0
   11.3930   14.6340   21.9110 C   0  0  0  0  0  0  0  0  0  0  0  0
   10.5710   15.4240   20.9370 C   0  0  0  0  0  0  0  0  0  0  0  0
    9.9460   16.5830   21.3650 N   0  0  0  0  0  0  0  0  0  0  0  0
    9.3070   16.9880   20.3350 C   0  0  0  0  0  0  0  0  0  0  0  0
    9.4390   16.2230   19.2310 O   0  0  0  0  0  0  0  0  0  0  0  0
   10.2640   15.2210   19.6510 C   0  0  0  0  0  0  0  0  0  0  0  0
    9.6240   13.3570   22.9340 N   0  0  0  0  0  0  0  0  0  0  0  0
    8.6510   12.9030   23.8510 C   0  0  0  0  0  0  0  0  0  0  0  0
    7.9040   13.7520   24.6680 C   0  0  0  0  0  0  0  0  0  0  0  0
    6.9110   13.2490   25.4930 C   0  0  0  0  0  0  0  0  0  0  0  0
    6.6530   11.8900   25.5300 C   0  0  0  0  0  0  0  0  0  0  0  0
    8.3920   11.5200   23.9000 C   0  0  0  0  0  0  0  0  0  0  0  0
    7.3990   11.0080   24.7470 C   0  0  0  0  0  0  0  0  0  0  0  0
    7.4430    9.5850   24.5370 C   0  0  0  0  0  0  0  0  0  0  0  0
    9.0080   10.5480   23.1950 N   0  0  0  0  0  0  0  0  0  0  0  0
    8.3970    9.3990   23.6150 N   0  0  0  0  0  0  0  0  0  0  0  0
    8.8310    8.1490   22.9930 C   0  0  0  0  0  0  0  0  0  0  0  0
  2  1  2  0
  3  2  1  0
  4  3  1  0
  5  4  1  0
  6  5  2  0
  7  6  1  0
  8  7  1  0
  8  4  2  0
  9  2  1  0
 10  9  1  0
 11 10  2  0
 12 11  1  0
 13 12  2  0
 14 10  1  0
 15 14  1  0
 15 13  1  0
 16 15  2  0
 17 14  2  0
 18 17  1  0
 18 16  1  0
 19 18  1  0
M  END
>  <id>  (1) 
207349

>  <inchikey>  (1) 
YEAWWZXWMQIDNB-UHFFFAOYSA-N

>  <alias>  (1) 
A3403a

>  <name>  (1) 
A3403a

>  <smiles>  (1) 
Cn1cc2cccc(NC(=O)Cc3cocn3)c2n1

>  <path>  (1) 
/opt/xchem-fragalysis-2/maxwin/2A_HIPPO/A71EV2A_P3only_20241209/aligned_files/A3403a/A3403a.pdb

>  <distance_score>  (1) 
None

>  <energy_score>  (1) 
None

>  <compound>  (1) 
YEAWWZXWMQIDNB-UHFFFAOYSA-N

>  <compound_id>  (1) 
122394

>  <target>  (1) 
A71EV2A

$$$$
