A71EV2A-x3419_A_201_v1
     RDKit          3D

 22 24  0  0  0  0  0  0  0  0999 V2000
    7.7690    8.4120   24.7670 O   0  0  0  0  0  0  0  0  0  0  0  0
    8.2730    9.5090   24.6490 C   0  0  0  0  0  0  0  0  0  0  0  0
    9.3330    9.7060   23.7880 N   0  0  0  0  0  0  0  0  0  0  0  0
    9.9140    8.5900   23.0580 C   0  0  0  0  0  0  0  0  0  0  0  0
    7.7690   10.7240   25.2930 C   0  0  0  0  0  0  0  0  0  0  0  0
    6.6840   10.6520   26.1710 C   0  0  0  0  0  0  0  0  0  0  0  0
    6.1600   11.8090   26.7180 C   0  0  0  0  0  0  0  0  0  0  0  0
    6.7170   13.0360   26.4220 C   0  0  0  0  0  0  0  0  0  0  0  0
    7.8100   13.1200   25.5770 C   0  0  0  0  0  0  0  0  0  0  0  0
    8.3600   11.9640   25.0240 C   0  0  0  0  0  0  0  0  0  0  0  0
    9.5360   11.9740   24.1270 C   0  0  0  0  0  0  0  0  0  0  0  0
    9.9780   10.8960   23.5490 N   0  0  0  0  0  0  0  0  0  0  0  0
   10.4070   13.1940   23.9460 C   0  0  0  0  0  0  0  0  0  0  0  0
   10.5340   14.0040   24.8490 O   0  0  0  0  0  0  0  0  0  0  0  0
   11.0400   13.3100   22.7690 N   0  0  0  0  0  0  0  0  0  0  0  0
   12.0620   14.3270   22.5670 C   0  0  0  0  0  0  0  0  0  0  0  0
   12.2270   14.6640   21.0970 C   0  0  0  0  0  0  0  0  0  0  0  0
   11.0190   15.3570   20.5560 C   0  0  0  0  0  0  0  0  0  0  0  0
   10.2840   16.2420   21.3250 N   0  0  0  0  0  0  0  0  0  0  0  0
    9.3160   16.5940   20.5560 C   0  0  0  0  0  0  0  0  0  0  0  0
    9.3370   16.0600   19.3170 O   0  0  0  0  0  0  0  0  0  0  0  0
   10.4440   15.2570   19.3480 C   0  0  0  0  0  0  0  0  0  0  0  0
  2  1  2  0
  3  2  1  0
  4  3  1  0
  5  2  1  0
  6  5  2  0
  7  6  1  0
  8  7  2  0
  9  8  1  0
 10  5  1  0
 10  9  2  0
 11 10  1  0
 12  3  1  0
 12 11  2  0
 13 11  1  0
 14 13  2  0
 15 13  1  0
 16 15  1  0
 17 16  1  0
 18 17  1  0
 19 18  1  0
 20 19  2  0
 21 20  1  0
 22 21  1  0
 22 18  2  0
M  END
>  <id>  (1) 
207353

>  <inchikey>  (1) 
LDVAVSGFMNNJNN-UHFFFAOYSA-N

>  <alias>  (1) 
A3419a

>  <name>  (1) 
A3419a

>  <smiles>  (1) 
Cn1nc(C(=O)NCCc2cocn2)c2ccccc2c1=O

>  <path>  (1) 
/opt/xchem-fragalysis-2/maxwin/2A_HIPPO/A71EV2A_P3only_20241209/aligned_files/A3419a/A3419a.pdb

>  <distance_score>  (1) 
None

>  <energy_score>  (1) 
None

>  <compound>  (1) 
LDVAVSGFMNNJNN-UHFFFAOYSA-N

>  <compound_id>  (1) 
122398

>  <target>  (1) 
A71EV2A

$$$$
