A71EV2A-x3417_A_201_v1
     RDKit          3D

 16 17  0  0  0  0  0  0  0  0999 V2000
    7.2960   12.7530   22.9810 O   0  0  0  0  0  0  0  0  0  0  0  0
    8.2390   13.1570   23.6380 C   0  0  0  0  0  0  0  0  0  0  0  0
    8.7130   12.4790   24.7030 N   0  0  0  0  0  0  0  0  0  0  0  0
    8.0540   11.2880   25.2450 C   0  0  0  0  0  0  0  0  0  0  0  0
    8.8040   10.0060   24.9040 C   0  0  1  0  0  0  0  0  0  0  0  0
    9.5890    9.8640   23.6460 C   0  0  0  0  0  0  0  0  0  0  0  0
   10.3080    9.9650   24.9460 C   0  0  0  0  0  0  0  0  0  0  0  0
    8.8130   14.3680   23.3690 N   0  0  0  0  0  0  0  0  0  0  0  0
    9.8670   14.9790   24.1930 C   0  0  0  0  0  0  0  0  0  0  0  0
   11.2120   14.8380   23.4890 C   0  0  0  0  0  0  0  0  0  0  0  0
   11.1380   15.4740   22.0980 C   0  0  0  0  0  0  0  0  0  0  0  0
    8.6900   14.9360   22.0210 C   0  0  0  0  0  0  0  0  0  0  0  0
   10.0170   14.8020   21.2680 C   0  0  1  0  0  0  0  0  0  0  0  0
    9.9170   15.3800   19.8670 C   0  0  0  0  0  0  0  0  0  0  0  0
    9.4430   16.5080   19.6780 O   0  0  0  0  0  0  0  0  0  0  0  0
   10.3500   14.5950   18.8790 N   0  0  0  0  0  0  0  0  0  0  0  0
  2  1  2  0
  3  2  1  0
  4  3  1  0
  5  4  1  6
  6  5  1  0
  7  6  1  0
  7  5  1  0
  8  2  1  0
  9  8  1  0
 10  9  1  0
 11 10  1  0
 12  8  1  0
 13 12  1  0
 13 11  1  0
 13 14  1  6
 15 14  2  0
 16 14  1  0
M  END
>  <id>  (1) 
207352

>  <inchikey>  (1) 
FPQQXSDKENBGCM-VIFPVBQESA-N

>  <alias>  (1) 
A3417a

>  <name>  (1) 
A3417a

>  <smiles>  (1) 
NC(=O)[C@H]1CCCN(C(=O)NCC2CC2)C1

>  <path>  (1) 
/opt/xchem-fragalysis-2/maxwin/2A_HIPPO/A71EV2A_P3only_20241209/aligned_files/A3417a/A3417a.pdb

>  <distance_score>  (1) 
None

>  <energy_score>  (1) 
None

>  <compound>  (1) 
FPQQXSDKENBGCM-UHFFFAOYSA-N

>  <compound_id>  (1) 
122397

>  <target>  (1) 
A71EV2A

$$$$
