A71EV2A-x3436_A_201_v1
     RDKit          3D

 16 17  0  0  0  0  0  0  0  0999 V2000
    9.5200   14.0450   24.8630 O   0  0  0  0  0  0  0  0  0  0  0  0
    9.6640   13.1910   23.9800 C   0  0  0  0  0  0  0  0  0  0  0  0
    9.0300   11.8620   24.1000 C   0  0  0  0  0  0  0  0  0  0  0  0
    7.9920   11.4140   24.9270 C   0  0  0  0  0  0  0  0  0  0  0  0
    7.8330   10.1090   24.7330 N   0  0  0  0  0  0  0  0  0  0  0  0
    9.5130   10.8160   23.3980 N   0  0  0  0  0  0  0  0  0  0  0  0
    8.7760    9.8000   23.8370 N   0  0  0  0  0  0  0  0  0  0  0  0
    9.0160    8.4310   23.4010 C   0  0  0  0  0  0  0  0  0  0  0  0
   10.4740   13.3570   22.9220 N   0  0  0  0  0  0  0  0  0  0  0  0
   11.4550   14.4380   22.8690 C   0  0  0  0  0  0  0  0  0  0  0  0
   11.7770   14.8620   21.4500 C   0  0  0  0  0  0  0  0  0  0  0  0
   10.6010   15.5480   20.8320 C   0  0  0  0  0  0  0  0  0  0  0  0
    9.9110   16.5610   21.4940 N   0  0  0  0  0  0  0  0  0  0  0  0
    9.0140   16.9250   20.6540 C   0  0  0  0  0  0  0  0  0  0  0  0
    9.0270   16.2630   19.4760 O   0  0  0  0  0  0  0  0  0  0  0  0
   10.0540   15.3770   19.6220 C   0  0  0  0  0  0  0  0  0  0  0  0
  2  1  2  0
  3  2  1  0
  4  3  1  0
  5  4  2  0
  6  3  2  0
  7  6  1  0
  7  5  1  0
  8  7  1  0
  9  2  1  0
 10  9  1  0
 11 10  1  0
 12 11  1  0
 13 12  1  0
 14 13  2  0
 15 14  1  0
 16 15  1  0
 16 12  2  0
M  END
>  <id>  (1) 
207355

>  <inchikey>  (1) 
PBFVVICHKJKWIA-UHFFFAOYSA-N

>  <alias>  (1) 
A3436a

>  <name>  (1) 
A3436a

>  <smiles>  (1) 
Cn1ncc(C(=O)NCCc2cocn2)n1

>  <path>  (1) 
/opt/xchem-fragalysis-2/maxwin/2A_HIPPO/A71EV2A_P3only_20241209/aligned_files/A3436a/A3436a.pdb

>  <distance_score>  (1) 
None

>  <energy_score>  (1) 
None

>  <compound>  (1) 
PBFVVICHKJKWIA-UHFFFAOYSA-N

>  <compound_id>  (1) 
122400

>  <target>  (1) 
A71EV2A

$$$$
