A71EV2A-x3489_A_201_v1
     RDKit          3D

 22 24  0  0  0  0  0  0  0  0999 V2000
    9.8770   16.6340   19.7030 O   0  0  0  0  0  0  0  0  0  0  0  0
   10.4760   15.5590   19.7990 C   0  0  0  0  0  0  0  0  0  0  0  0
   10.9240   14.8920   18.7450 N   0  0  0  0  0  0  0  0  0  0  0  0
   10.6880   14.8970   21.1510 C   0  0  1  0  0  0  0  0  0  0  0  0
   11.7080   15.6580   22.0070 C   0  0  0  0  0  0  0  0  0  0  0  0
   11.8560   15.0440   23.4030 C   0  0  0  0  0  0  0  0  0  0  0  0
   10.5040   14.8920   24.1020 C   0  0  0  0  0  0  0  0  0  0  0  0
    9.3610   14.9200   21.9110 C   0  0  0  0  0  0  0  0  0  0  0  0
    9.5120   14.2650   23.2120 N   0  0  0  0  0  0  0  0  0  0  0  0
    8.7650   13.1830   23.5150 C   0  0  0  0  0  0  0  0  0  0  0  0
    7.8000   12.8450   22.8390 O   0  0  0  0  0  0  0  0  0  0  0  0
    9.2190   12.3840   24.7220 C   0  0  0  0  0  0  0  0  0  0  0  0
    8.3590   11.2050   25.0430 C   0  0  0  0  0  0  0  0  0  0  0  0
    8.4310    9.8650   24.6800 C   0  0  0  0  0  0  0  0  0  0  0  0
    9.4230    9.1450   23.8260 C   0  0  0  0  0  0  0  0  0  0  0  0
    7.2600   11.3080   25.8670 N   0  0  0  0  0  0  0  0  0  0  0  0
    6.6610   12.5320   26.4360 C   0  0  0  0  0  0  0  0  0  0  0  0
    5.8780   12.2060   27.6960 C   0  0  0  0  0  0  0  0  0  0  0  0
    4.8960   11.0730   27.4510 C   0  0  0  0  0  0  0  0  0  0  0  0
    5.5780    9.8080   26.9290 C   0  0  0  0  0  0  0  0  0  0  0  0
    6.7240   10.0470   25.9930 C   0  0  0  0  0  0  0  0  0  0  0  0
    7.4040    9.1680   25.2800 N   0  0  0  0  0  0  0  0  0  0  0  0
  2  1  2  0
  3  2  1  0
  4  2  1  6
  5  4  1  0
  6  5  1  0
  7  6  1  0
  8  4  1  0
  9  8  1  0
  9  7  1  0
 10  9  1  0
 11 10  2  0
 12 10  1  0
 13 12  1  0
 14 13  2  0
 15 14  1  0
 16 13  1  0
 17 16  1  0
 18 17  1  0
 19 18  1  0
 20 19  1  0
 21 20  1  0
 21 16  1  0
 22 21  2  0
 22 14  1  0
M  END
>  <id>  (1) 
207361

>  <inchikey>  (1) 
FXTPOBAQIFAHIO-LBPRGKRZSA-N

>  <alias>  (1) 
A3489a

>  <name>  (1) 
A3489a

>  <smiles>  (1) 
Cc1nc2n(c1CC(=O)N1CCC[C@H](C(N)=O)C1)CCCC2

>  <path>  (1) 
/opt/xchem-fragalysis-2/maxwin/2A_HIPPO/A71EV2A_P3only_20241209/aligned_files/A3489a/A3489a.pdb

>  <distance_score>  (1) 
None

>  <energy_score>  (1) 
None

>  <compound>  (1) 
FXTPOBAQIFAHIO-UHFFFAOYSA-N

>  <compound_id>  (1) 
122406

>  <target>  (1) 
A71EV2A

$$$$
