A71EV2A-x4035_A_201_v2
     RDKit          3D

 21 22  0  0  0  0  0  0  0  0999 V2000
    9.7760   16.8760   19.6090 O   0  0  0  0  0  0  0  0  0  0  0  0
   10.1910   15.7280   19.8000 C   0  0  0  0  0  0  0  0  0  0  0  0
   10.6360   14.9520   18.8270 N   0  0  0  0  0  0  0  0  0  0  0  0
   10.2100   15.1210   21.1950 C   0  0  1  0  0  0  0  0  0  0  0  0
   11.2880   15.7650   22.0790 C   0  0  0  0  0  0  0  0  0  0  0  0
   11.2640   15.1910   23.4990 C   0  0  0  0  0  0  0  0  0  0  0  0
    9.8680   15.3080   24.1070 C   0  0  0  0  0  0  0  0  0  0  0  0
    8.8380   15.3220   21.8530 C   0  0  0  0  0  0  0  0  0  0  0  0
    8.8380   14.7600   23.2060 N   0  0  0  0  0  0  0  0  0  0  0  0
    8.0070   13.7100   23.4950 C   0  0  0  0  0  0  0  0  0  0  0  0
    7.2270   13.2570   22.6740 O   0  0  0  0  0  0  0  0  0  0  0  0
    8.0900   13.2120   24.7510 N   0  0  0  0  0  0  0  0  0  0  0  0
    7.2700   12.1190   25.1540 C   0  0  0  0  0  0  0  0  0  0  0  0
    7.6020   10.8050   24.7750 C   0  0  0  0  0  0  0  0  0  0  0  0
    8.6780   10.6940   23.9290 O   0  0  0  0  0  0  0  0  0  0  0  0
    9.1510    9.3850   23.6000 C   0  0  0  0  0  0  0  0  0  0  0  0
    6.1750   12.3100   25.9960 C   0  0  0  0  0  0  0  0  0  0  0  0
    5.6700   13.9150   26.4210 Cl  0  0  0  0  0  0  0  0  0  0  0  0
    5.4480   11.2500   26.4940 C   0  0  0  0  0  0  0  0  0  0  0  0
    5.8020    9.9620   26.1340 C   0  0  0  0  0  0  0  0  0  0  0  0
    6.8630    9.7340   25.2680 C   0  0  0  0  0  0  0  0  0  0  0  0
  2  1  2  0
  3  2  1  0
  4  2  1  6
  5  4  1  0
  6  5  1  0
  7  6  1  0
  8  4  1  0
  9  8  1  0
  9  7  1  0
 10  9  1  0
 11 10  2  0
 12 10  1  0
 13 12  1  0
 14 13  2  0
 15 14  1  0
 16 15  1  0
 17 13  1  0
 18 17  1  0
 19 17  2  0
 20 19  1  0
 21 20  2  0
 21 14  1  0
M  END
>  <id>  (1) 
207427

>  <inchikey>  (1) 
BAWQVTYFUSCRSF-VIFPVBQESA-N

>  <alias>  (1) 
A4035a

>  <name>  (1) 
A4035a

>  <smiles>  (1) 
COc1cccc(Cl)c1NC(=O)N1CCC[C@H](C(N)=O)C1

>  <path>  (1) 
/opt/xchem-fragalysis-2/maxwin/2A_HIPPO/A71EV2A_P3only_20241212/aligned_files/A4035a/A4035a_hippo.pdb

>  <distance_score>  (1) 
None

>  <energy_score>  (1) 
None

>  <compound>  (1) 
BAWQVTYFUSCRSF-UHFFFAOYSA-N

>  <compound_id>  (1) 
122457

>  <target>  (1) 
A71EV2A

$$$$
