A71EV2A-x4032_A_201_v2
     RDKit          3D

 20 21  0  0  0  0  0  0  0  0999 V2000
    9.9300   16.8860   19.3510 O   0  0  0  0  0  0  0  0  0  0  0  0
   10.5680   15.8420   19.5270 C   0  0  0  0  0  0  0  0  0  0  0  0
   10.6330   14.8770   18.6270 N   0  0  0  0  0  0  0  0  0  0  0  0
   11.3320   15.6100   20.8070 C   0  0  0  0  0  0  0  0  0  0  0  0
   10.5130   15.8340   22.0690 C   0  0  2  0  0  0  0  0  0  0  0  0
   11.3810   15.2760   23.2070 C   0  0  0  0  0  0  0  0  0  0  0  0
   10.4080   14.7320   24.2290 C   0  0  0  0  0  0  0  0  0  0  0  0
    9.2330   14.9800   22.1060 C   0  0  0  0  0  0  0  0  0  0  0  0
    9.2480   14.3400   23.4200 N   0  0  0  0  0  0  0  0  0  0  0  0
    8.2490   13.5270   23.7980 C   0  0  0  0  0  0  0  0  0  0  0  0
    7.2430   13.3680   23.1200 O   0  0  0  0  0  0  0  0  0  0  0  0
    8.4330   12.8770   25.1560 C   0  0  0  0  0  0  0  0  0  0  0  0
    7.4230   11.7810   25.3930 C   0  0  0  0  0  0  0  0  0  0  0  0
    7.6470   10.5010   24.8820 C   0  0  0  0  0  0  0  0  0  0  0  0
    8.6870   10.4070   23.9880 O   0  0  0  0  0  0  0  0  0  0  0  0
    9.1390    9.1090   23.6080 C   0  0  0  0  0  0  0  0  0  0  0  0
    6.3160   11.9890   26.2120 C   0  0  0  0  0  0  0  0  0  0  0  0
    5.4730   10.9430   26.5430 C   0  0  0  0  0  0  0  0  0  0  0  0
    5.7230    9.6840   26.0630 C   0  0  0  0  0  0  0  0  0  0  0  0
    6.8050    9.4550   25.2220 C   0  0  0  0  0  0  0  0  0  0  0  0
  2  1  2  0
  3  2  1  0
  4  2  1  0
  5  4  1  6
  6  5  1  0
  7  6  1  0
  8  5  1  0
  9  8  1  0
  9  7  1  0
 10  9  1  0
 11 10  2  0
 12 10  1  0
 13 12  1  0
 14 13  2  0
 15 14  1  0
 16 15  1  0
 17 13  1  0
 18 17  2  0
 19 18  1  0
 20 19  2  0
 20 14  1  0
M  END
>  <id>  (1) 
207426

>  <inchikey>  (1) 
MSPWRYALONZABD-NSHDSACASA-N

>  <alias>  (1) 
A4032a

>  <name>  (1) 
A4032a

>  <smiles>  (1) 
COc1ccccc1CC(=O)N1CC[C@@H](CC(N)=O)C1

>  <path>  (1) 
/opt/xchem-fragalysis-2/maxwin/2A_HIPPO/A71EV2A_P3only_20241212/aligned_files/A4032a/A4032a_hippo.pdb

>  <distance_score>  (1) 
None

>  <energy_score>  (1) 
None

>  <compound>  (1) 
MSPWRYALONZABD-UHFFFAOYSA-N

>  <compound_id>  (1) 
122466

>  <target>  (1) 
A71EV2A

$$$$
