A71EV2A-x4203_A_201_v2
     RDKit          3D

 21 22  0  0  0  0  0  0  0  0999 V2000
    9.8640   16.8350   19.4930 O   0  0  0  0  0  0  0  0  0  0  0  0
   10.3030   15.7010   19.7000 C   0  0  0  0  0  0  0  0  0  0  0  0
   10.6850   14.8910   18.7270 N   0  0  0  0  0  0  0  0  0  0  0  0
   10.4320   15.1520   21.1120 C   0  0  1  0  0  0  0  0  0  0  0  0
   11.5520   15.8610   21.8900 C   0  0  0  0  0  0  0  0  0  0  0  0
   11.7000   15.3040   23.3100 C   0  0  0  0  0  0  0  0  0  0  0  0
   10.3760   15.3430   24.0460 C   0  0  0  0  0  0  0  0  0  0  0  0
    9.1370   15.2590   21.9200 C   0  0  0  0  0  0  0  0  0  0  0  0
    9.3360   14.6740   23.2500 N   0  0  0  0  0  0  0  0  0  0  0  0
    8.6110   13.6090   23.6490 C   0  0  0  0  0  0  0  0  0  0  0  0
    7.7370   13.1240   22.9490 O   0  0  0  0  0  0  0  0  0  0  0  0
    8.9320   13.0470   25.0210 C   0  0  0  0  0  0  0  0  0  0  0  0
    7.9290   12.0080   25.4690 C   0  0  0  0  0  0  0  0  0  0  0  0
    8.0180   10.6800   25.0360 C   0  0  0  0  0  0  0  0  0  0  0  0
    9.0190   10.4310   24.1340 O   0  0  0  0  0  0  0  0  0  0  0  0
    9.2230    9.0850   23.7140 C   0  0  0  0  0  0  0  0  0  0  0  0
    6.9090   12.3440   26.3520 C   0  0  0  0  0  0  0  0  0  0  0  0
    5.9960   11.4070   26.7870 C   0  0  0  0  0  0  0  0  0  0  0  0
    6.0990   10.1200   26.3340 C   0  0  0  0  0  0  0  0  0  0  0  0
    4.8300    8.9930   26.7050 Cl  0  0  0  0  0  0  0  0  0  0  0  0
    7.1150    9.7270   25.4860 C   0  0  0  0  0  0  0  0  0  0  0  0
  2  1  2  0
  3  2  1  0
  4  2  1  6
  5  4  1  0
  6  5  1  0
  7  6  1  0
  8  4  1  0
  9  8  1  0
  9  7  1  0
 10  9  1  0
 11 10  2  0
 12 10  1  0
 13 12  1  0
 14 13  2  0
 15 14  1  0
 16 15  1  0
 17 13  1  0
 18 17  2  0
 19 18  1  0
 20 19  1  0
 21 19  2  0
 21 14  1  0
M  END
>  <id>  (1) 
207429

>  <inchikey>  (1) 
RXCDGQVWMAQTNG-NSHDSACASA-N

>  <alias>  (1) 
A4203a

>  <name>  (1) 
A4203a

>  <smiles>  (1) 
COc1cc(Cl)ccc1CC(=O)N1CCC[C@H](C(N)=O)C1

>  <path>  (1) 
/opt/xchem-fragalysis-2/maxwin/2A_HIPPO/A71EV2A_P3only_20241212/aligned_files/A4203a/A4203a.pdb

>  <distance_score>  (1) 
None

>  <energy_score>  (1) 
None

>  <compound>  (1) 
RXCDGQVWMAQTNG-UHFFFAOYSA-N

>  <compound_id>  (1) 
122554

>  <target>  (1) 
A71EV2A

$$$$
