A71EV2A-x4202_A_201_v2
     RDKit          3D

 21 23  0  0  0  0  0  0  0  0999 V2000
    9.2960   10.4560   23.8020 Br  0  0  0  0  0  0  0  0  0  0  0  0
    7.7160   10.7520   24.8160 C   0  0  0  0  0  0  0  0  0  0  0  0
    6.9690    9.6570   25.2170 C   0  0  0  0  0  0  0  0  0  0  0  0
    5.8290    9.8620   25.9850 C   0  0  0  0  0  0  0  0  0  0  0  0
    5.4460   11.1400   26.3370 C   0  0  0  0  0  0  0  0  0  0  0  0
    7.3490   12.0400   25.1680 C   0  0  0  0  0  0  0  0  0  0  0  0
    6.1960   12.2300   25.9170 C   0  0  0  0  0  0  0  0  0  0  0  0
    5.9400   13.6930   26.1520 C   0  0  0  0  0  0  0  0  0  0  0  0
    7.3060   14.3250   25.8680 C   0  0  0  0  0  0  0  0  0  0  0  0
    8.0740   13.3370   24.9260 C   0  0  2  0  0  0  0  0  0  0  0  0
    8.0420   13.7670   23.4590 C   0  0  0  0  0  0  0  0  0  0  0  0
    7.2460   13.2830   22.6730 O   0  0  0  0  0  0  0  0  0  0  0  0
    8.8780   14.7560   23.0800 N   0  0  0  0  0  0  0  0  0  0  0  0
    9.8460   15.4220   23.9740 C   0  0  0  0  0  0  0  0  0  0  0  0
   11.2550   15.3820   23.4270 C   0  0  0  0  0  0  0  0  0  0  0  0
   11.2890   15.9520   22.0090 C   0  0  0  0  0  0  0  0  0  0  0  0
    8.8630   15.2730   21.7080 C   0  0  0  0  0  0  0  0  0  0  0  0
   10.2800   15.2000   21.1250 C   0  0  1  0  0  0  0  0  0  0  0  0
   10.2630   15.7510   19.7100 C   0  0  0  0  0  0  0  0  0  0  0  0
    9.8710   16.8960   19.4760 O   0  0  0  0  0  0  0  0  0  0  0  0
   10.6350   14.9120   18.7530 N   0  0  0  0  0  0  0  0  0  0  0  0
  2  1  1  0
  3  2  2  0
  4  3  1  0
  5  4  2  0
  6  2  1  0
  7  5  1  0
  7  6  2  0
  8  7  1  0
  9  8  1  0
 10  9  1  0
 10  6  1  0
 10 11  1  6
 12 11  2  0
 13 11  1  0
 14 13  1  0
 15 14  1  0
 16 15  1  0
 17 13  1  0
 18 17  1  0
 18 16  1  0
 18 19  1  6
 20 19  2  0
 21 19  1  0
M  END
>  <id>  (1) 
207428

>  <inchikey>  (1) 
AXUVEMNCADPROP-RYUDHWBXSA-N

>  <alias>  (1) 
A4202a

>  <name>  (1) 
A4202a

>  <smiles>  (1) 
NC(=O)[C@H]1CCCN(C(=O)[C@H]2CCc3cccc(Br)c32)C1

>  <path>  (1) 
/opt/xchem-fragalysis-2/maxwin/2A_HIPPO/A71EV2A_P3only_20241212/aligned_files/A4202a/A4202a_hippo.pdb

>  <distance_score>  (1) 
None

>  <energy_score>  (1) 
None

>  <compound>  (1) 
AXUVEMNCADPROP-UHFFFAOYSA-N

>  <compound_id>  (1) 
122553

>  <target>  (1) 
A71EV2A

$$$$
