A71EV2A-x4207_A_201_v2
     RDKit          3D

 24 25  0  0  0  0  0  0  0  0999 V2000
   10.4440   14.7220   18.9560 O   0  0  0  0  0  0  0  0  0  0  0  0
   10.2000   15.4800   19.9020 C   0  0  0  0  0  0  0  0  0  0  0  0
    9.7370   16.7030   19.7360 N   0  0  0  0  0  0  0  0  0  0  0  0
   10.4670   15.0560   21.3360 C   0  0  1  0  0  0  0  0  0  0  0  0
   11.6200   15.8650   21.9550 C   0  0  0  0  0  0  0  0  0  0  0  0
   11.8770   15.4310   23.3970 C   0  0  0  0  0  0  0  0  0  0  0  0
   10.6080   15.5580   24.2230 C   0  0  0  0  0  0  0  0  0  0  0  0
    9.2110   15.1790   22.2060 C   0  0  0  0  0  0  0  0  0  0  0  0
    9.5050   14.8110   23.5970 N   0  0  0  0  0  0  0  0  0  0  0  0
    8.7980   13.9120   24.3210 C   0  0  0  0  0  0  0  0  0  0  0  0
    9.1140   13.6210   25.4650 O   0  0  0  0  0  0  0  0  0  0  0  0
    7.5090   13.3160   23.7130 C   0  0  2  0  0  0  0  0  0  0  0  0
    6.5050   14.3690   23.5920 N   0  0  0  0  0  0  0  0  0  0  0  0
    5.6450   14.4590   22.5670 C   0  0  0  0  0  0  0  0  0  0  0  0
    5.6110   13.6200   21.6680 O   0  0  0  0  0  0  0  0  0  0  0  0
    4.7450   15.6600   22.5700 C   0  0  0  0  0  0  0  0  0  0  0  0
    7.0080   12.1880   24.6070 C   0  0  0  0  0  0  0  0  0  0  0  0
    7.5120   10.8970   24.4490 C   0  0  0  0  0  0  0  0  0  0  0  0
    8.5170   10.7740   23.5260 O   0  0  0  0  0  0  0  0  0  0  0  0
    9.2530    9.5400   23.4830 C   0  0  0  0  0  0  0  0  0  0  0  0
    5.9910   12.3860   25.5400 C   0  0  0  0  0  0  0  0  0  0  0  0
    5.4730   11.3260   26.2700 C   0  0  0  0  0  0  0  0  0  0  0  0
    5.9600   10.0520   26.0780 C   0  0  0  0  0  0  0  0  0  0  0  0
    6.9870    9.8290   25.1730 C   0  0  0  0  0  0  0  0  0  0  0  0
  2  1  2  0
  3  2  1  0
  4  2  1  6
  5  4  1  0
  6  5  1  0
  7  6  1  0
  8  4  1  0
  9  8  1  0
  9  7  1  0
 10  9  1  0
 11 10  2  0
 12 10  1  0
 12 13  1  1
 14 13  1  0
 15 14  2  0
 16 14  1  0
 17 12  1  0
 18 17  2  0
 19 18  1  0
 20 19  1  0
 21 17  1  0
 22 21  2  0
 23 22  1  0
 24 23  2  0
 24 18  1  0
M  END
>  <id>  (1) 
207430

>  <inchikey>  (1) 
KEZJHWCQWSCOQQ-SWLSCSKDSA-N

>  <alias>  (1) 
A4207a

>  <name>  (1) 
A4207a

>  <smiles>  (1) 
COc1ccccc1[C@@H](NC(C)=O)C(=O)N1CCC[C@H](C(N)=O)C1

>  <path>  (1) 
/opt/xchem-fragalysis-2/maxwin/2A_HIPPO/A71EV2A_P3only_20241212/aligned_files/A4207a/A4207a_hippo.pdb

>  <distance_score>  (1) 
None

>  <energy_score>  (1) 
None

>  <compound>  (1) 
KEZJHWCQWSCOQQ-UHFFFAOYSA-N

>  <compound_id>  (1) 
122555

>  <target>  (1) 
A71EV2A

$$$$
