A71EV2A-x4237_A_201_v2
     RDKit          3D

 26 28  0  0  0  0  0  0  0  0999 V2000
    6.3360   18.9570   27.3740 F   0  0  0  0  0  0  0  0  0  0  0  0
    6.3780   17.6600   26.9740 C   0  0  0  0  0  0  0  0  0  0  0  0
    6.9710   16.7400   27.7900 C   0  0  0  0  0  0  0  0  0  0  0  0
    7.0320   15.4260   27.3600 C   0  0  0  0  0  0  0  0  0  0  0  0
    5.8350   17.3350   25.7660 C   0  0  0  0  0  0  0  0  0  0  0  0
    5.9080   16.0180   25.3500 C   0  0  0  0  0  0  0  0  0  0  0  0
    6.5080   15.0470   26.1350 C   0  0  0  0  0  0  0  0  0  0  0  0
    6.5900   13.6150   25.6630 C   0  0  0  0  0  0  0  0  0  0  0  0
    7.8950   13.3010   24.8960 C   0  0  1  0  0  0  0  0  0  0  0  0
    8.1380   11.8240   24.6340 C   0  0  0  0  0  0  0  0  0  0  0  0
    7.3080   10.8460   25.1600 C   0  0  0  0  0  0  0  0  0  0  0  0
    7.5870    9.5060   24.9600 C   0  0  0  0  0  0  0  0  0  0  0  0
    8.7010    9.1290   24.2420 C   0  0  0  0  0  0  0  0  0  0  0  0
    9.5120   10.0850   23.6920 C   0  0  0  0  0  0  0  0  0  0  0  0
    9.2320   11.4270   23.8800 C   0  0  0  0  0  0  0  0  0  0  0  0
    7.8290   13.8820   23.4860 C   0  0  0  0  0  0  0  0  0  0  0  0
    7.0350   13.4310   22.6760 O   0  0  0  0  0  0  0  0  0  0  0  0
    8.6820   14.8760   23.1600 N   0  0  0  0  0  0  0  0  0  0  0  0
    9.6890   15.4740   24.0530 C   0  0  0  0  0  0  0  0  0  0  0  0
   11.0960   15.3150   23.4820 C   0  0  0  0  0  0  0  0  0  0  0  0
   11.1600   15.8130   22.0370 C   0  0  0  0  0  0  0  0  0  0  0  0
    8.7000   15.4340   21.8070 C   0  0  0  0  0  0  0  0  0  0  0  0
   10.0660   15.1650   21.1740 C   0  0  1  0  0  0  0  0  0  0  0  0
   10.0890   15.6960   19.7510 C   0  0  0  0  0  0  0  0  0  0  0  0
    9.7490   16.8550   19.4970 O   0  0  0  0  0  0  0  0  0  0  0  0
   10.4630   14.8350   18.8200 N   0  0  0  0  0  0  0  0  0  0  0  0
  2  1  1  0
  3  2  2  0
  4  3  1  0
  5  2  1  0
  6  5  2  0
  7  6  1  0
  7  4  2  0
  8  7  1  0
  9  8  1  6
 10  9  1  0
 11 10  2  0
 12 11  1  0
 13 12  2  0
 14 13  1  0
 15 14  2  0
 15 10  1  0
 16  9  1  0
 17 16  2  0
 18 16  1  0
 19 18  1  0
 20 19  1  0
 21 20  1  0
 22 18  1  0
 23 22  1  0
 23 21  1  0
 23 24  1  6
 25 24  2  0
 26 24  1  0
M  END
>  <id>  (1) 
207431

>  <inchikey>  (1) 
BJVLTIUJQBTOEQ-HKUYNNGSSA-N

>  <alias>  (1) 
A4237a

>  <name>  (1) 
A4237a

>  <smiles>  (1) 
NC(=O)[C@H]1CCCN(C(=O)[C@@H](Cc2ccc(F)cc2)c2ccccc2)C1

>  <path>  (1) 
/opt/xchem-fragalysis-2/maxwin/2A_HIPPO/A71EV2A_P3only_20241212/aligned_files/A4237a/A4237a_hippo.pdb

>  <distance_score>  (1) 
None

>  <energy_score>  (1) 
None

>  <compound>  (1) 
BJVLTIUJQBTOEQ-UHFFFAOYSA-N

>  <compound_id>  (1) 
122556

>  <target>  (1) 
A71EV2A

$$$$
