A71EV2A-x4260_A_201_v2
     RDKit          3D

 22 24  0  0  0  0  0  0  0  0999 V2000
    9.3340    8.9430   23.5270 Cl  0  0  0  0  0  0  0  0  0  0  0  0
    8.3300   10.0420   24.4360 C   0  0  0  0  0  0  0  0  0  0  0  0
    7.3410    9.5400   25.2480 C   0  0  0  0  0  0  0  0  0  0  0  0
    6.5320   10.4160   25.9520 C   0  0  0  0  0  0  0  0  0  0  0  0
    8.5360   11.3980   24.3010 C   0  0  0  0  0  0  0  0  0  0  0  0
    7.7200   12.2980   24.9880 C   0  0  0  0  0  0  0  0  0  0  0  0
    6.7100   11.7850   25.8020 C   0  0  0  0  0  0  0  0  0  0  0  0
    5.7730   12.5820   26.4100 O   0  0  0  0  0  0  0  0  0  0  0  0
    6.2420   13.9130   26.7570 C   0  0  0  0  0  0  0  0  0  0  0  0
    6.8520   14.6560   25.5970 C   0  0  0  0  0  0  0  0  0  0  0  0
    7.9270   13.7970   24.8790 C   0  0  2  0  0  0  0  0  0  0  0  0
    7.9790   14.1490   23.3930 C   0  0  0  0  0  0  0  0  0  0  0  0
    7.2810   13.5460   22.5960 O   0  0  0  0  0  0  0  0  0  0  0  0
    8.7680   15.1770   23.0040 N   0  0  0  0  0  0  0  0  0  0  0  0
    9.7360   15.9020   23.8460 C   0  0  0  0  0  0  0  0  0  0  0  0
   11.1380   15.8430   23.2570 C   0  0  0  0  0  0  0  0  0  0  0  0
   11.1340   16.2770   21.7890 C   0  0  0  0  0  0  0  0  0  0  0  0
    8.7100   15.6900   21.6330 C   0  0  0  0  0  0  0  0  0  0  0  0
   10.0800   15.5080   20.9820 C   0  0  1  0  0  0  0  0  0  0  0  0
   10.1200   15.8890   19.5120 C   0  0  0  0  0  0  0  0  0  0  0  0
   10.3840   15.0510   18.6480 O   0  0  0  0  0  0  0  0  0  0  0  0
    9.8610   17.1530   19.2300 N   0  0  0  0  0  0  0  0  0  0  0  0
  2  1  1  0
  3  2  2  0
  4  3  1  0
  5  2  1  0
  6  5  2  0
  7  4  2  0
  7  6  1  0
  8  7  1  0
  9  8  1  0
 10  9  1  0
 11 10  1  0
 11  6  1  0
 11 12  1  6
 13 12  2  0
 14 12  1  0
 15 14  1  0
 16 15  1  0
 17 16  1  0
 18 14  1  0
 19 18  1  0
 19 17  1  0
 19 20  1  6
 21 20  2  0
 22 20  1  0
M  END
>  <id>  (1) 
207432

>  <inchikey>  (1) 
BPTVIAUUXZRLLA-JQWIXIFHSA-N

>  <alias>  (1) 
A4260a

>  <name>  (1) 
A4260a

>  <smiles>  (1) 
NC(=O)[C@H]1CCCN(C(=O)[C@H]2CCOc3ccc(Cl)cc32)C1

>  <path>  (1) 
/opt/xchem-fragalysis-2/maxwin/2A_HIPPO/A71EV2A_P3only_20241212/aligned_files/A4260a/A4260a.pdb

>  <distance_score>  (1) 
None

>  <energy_score>  (1) 
None

>  <compound>  (1) 
BPTVIAUUXZRLLA-UHFFFAOYSA-N

>  <compound_id>  (1) 
122557

>  <target>  (1) 
A71EV2A

$$$$
