A71EV2A-x4319_A_201_v2
     RDKit          3D

 22 23  0  0  0  0  0  0  0  0999 V2000
    9.0020    8.5500   23.6240 F   0  0  0  0  0  0  0  0  0  0  0  0
    9.5690    9.6830   24.0290 C   0  0  1  0  0  0  0  0  0  0  0  0
   10.0550    9.8640   22.7920 F   0  0  0  0  0  0  0  0  0  0  0  0
    8.6670   10.6750   24.0260 O   0  0  0  0  0  0  0  0  0  0  0  0
    7.6270   10.8060   24.9130 C   0  0  0  0  0  0  0  0  0  0  0  0
    6.8180    9.7570   25.3190 C   0  0  0  0  0  0  0  0  0  0  0  0
    5.7410   10.0110   26.1530 C   0  0  0  0  0  0  0  0  0  0  0  0
    5.4830   11.2890   26.5840 C   0  0  0  0  0  0  0  0  0  0  0  0
    6.2980   12.3320   26.1870 C   0  0  0  0  0  0  0  0  0  0  0  0
    7.3820   12.1120   25.3430 C   0  0  0  0  0  0  0  0  0  0  0  0
    8.3140   13.2400   24.9620 C   0  0  0  0  0  0  0  0  0  0  0  0
    8.1240   13.7280   23.5340 C   0  0  0  0  0  0  0  0  0  0  0  0
    7.2950   13.2300   22.7880 O   0  0  0  0  0  0  0  0  0  0  0  0
    8.9010   14.7630   23.1510 N   0  0  0  0  0  0  0  0  0  0  0  0
    9.8620   15.4630   24.0200 C   0  0  0  0  0  0  0  0  0  0  0  0
   11.2500   15.4730   23.4090 C   0  0  0  0  0  0  0  0  0  0  0  0
   11.2150   15.9920   21.9660 C   0  0  0  0  0  0  0  0  0  0  0  0
    8.8080   15.3150   21.7950 C   0  0  0  0  0  0  0  0  0  0  0  0
   10.1770   15.2390   21.1180 C   0  0  1  0  0  0  0  0  0  0  0  0
   10.1410   15.7480   19.6880 C   0  0  0  0  0  0  0  0  0  0  0  0
   10.4620   15.0150   18.7470 O   0  0  0  0  0  0  0  0  0  0  0  0
    9.7440   17.0010   19.5210 N   0  0  0  0  0  0  0  0  0  0  0  0
  2  1  1  6
  3  2  1  0
  4  2  1  0
  5  4  1  0
  6  5  2  0
  7  6  1  0
  8  7  2  0
  9  8  1  0
 10  5  1  0
 10  9  2  0
 11 10  1  0
 12 11  1  0
 13 12  2  0
 14 12  1  0
 15 14  1  0
 16 15  1  0
 17 16  1  0
 18 14  1  0
 19 18  1  0
 19 17  1  0
 19 20  1  6
 21 20  2  0
 22 20  1  0
M  END
>  <id>  (1) 
207438

>  <inchikey>  (1) 
CNHPUFFRJJADDP-NSHDSACASA-N

>  <alias>  (1) 
A4319a

>  <name>  (1) 
A4319a

>  <smiles>  (1) 
NC(=O)[C@H]1CCCN(C(=O)Cc2ccccc2OC(F)F)C1

>  <path>  (1) 
/opt/xchem-fragalysis-2/maxwin/2A_HIPPO/A71EV2A_P3only_20241212/aligned_files/A4319a/A4319a.pdb

>  <distance_score>  (1) 
None

>  <energy_score>  (1) 
None

>  <compound>  (1) 
CNHPUFFRJJADDP-UHFFFAOYSA-N

>  <compound_id>  (1) 
122563

>  <target>  (1) 
A71EV2A

$$$$
