A71EV2A-x4347_A_201_v2
     RDKit          3D

 20 21  0  0  0  0  0  0  0  0999 V2000
    9.9450   16.7580   19.6530 O   0  0  0  0  0  0  0  0  0  0  0  0
   10.4150   15.6300   19.8320 C   0  0  0  0  0  0  0  0  0  0  0  0
   10.7980   14.8540   18.8370 N   0  0  0  0  0  0  0  0  0  0  0  0
   10.4980   15.0200   21.2220 C   0  0  1  0  0  0  0  0  0  0  0  0
   11.6430   15.6320   22.0540 C   0  0  0  0  0  0  0  0  0  0  0  0
   11.7610   14.9590   23.4260 C   0  0  0  0  0  0  0  0  0  0  0  0
   10.4290   14.9800   24.1550 C   0  0  0  0  0  0  0  0  0  0  0  0
    9.1930   15.0570   22.0200 C   0  0  0  0  0  0  0  0  0  0  0  0
    9.3620   14.4020   23.3200 N   0  0  0  0  0  0  0  0  0  0  0  0
    8.5510   13.3860   23.6910 C   0  0  0  0  0  0  0  0  0  0  0  0
    7.6690   12.9560   22.9540 O   0  0  0  0  0  0  0  0  0  0  0  0
    8.7890   12.8170   25.0790 C   0  0  0  0  0  0  0  0  0  0  0  0
    7.9320   11.6110   25.3920 C   0  0  0  0  0  0  0  0  0  0  0  0
    8.1070   10.3380   24.7990 C   0  0  0  0  0  0  0  0  0  0  0  0
    9.1730   10.2460   23.9730 O   0  0  0  0  0  0  0  0  0  0  0  0
    9.3910    9.0160   23.2910 C   0  0  0  0  0  0  0  0  0  0  0  0
    6.9410   11.6960   26.3640 C   0  0  0  0  0  0  0  0  0  0  0  0
    6.1740   10.5930   26.6860 C   0  0  0  0  0  0  0  0  0  0  0  0
    6.4120    9.4190   26.0200 C   0  0  0  0  0  0  0  0  0  0  0  0
    7.3610    9.2750   25.0830 N   0  0  0  0  0  0  0  0  0  0  0  0
  2  1  2  0
  3  2  1  0
  4  2  1  6
  5  4  1  0
  6  5  1  0
  7  6  1  0
  8  4  1  0
  9  8  1  0
  9  7  1  0
 10  9  1  0
 11 10  2  0
 12 10  1  0
 13 12  1  0
 14 13  2  0
 15 14  1  0
 16 15  1  0
 17 13  1  0
 18 17  2  0
 19 18  1  0
 20 19  2  0
 20 14  1  0
M  END
>  <id>  (1) 
207445

>  <inchikey>  (1) 
DPQNQDXNIINHJH-NSHDSACASA-N

>  <alias>  (1) 
A4347a

>  <name>  (1) 
A4347a

>  <smiles>  (1) 
COc1ncccc1CC(=O)N1CCC[C@H](C(N)=O)C1

>  <path>  (1) 
/opt/xchem-fragalysis-2/maxwin/2A_HIPPO/A71EV2A_P3only_20241212/aligned_files/A4347a/A4347a.pdb

>  <distance_score>  (1) 
None

>  <energy_score>  (1) 
None

>  <compound>  (1) 
DPQNQDXNIINHJH-UHFFFAOYSA-N

>  <compound_id>  (1) 
122467

>  <target>  (1) 
A71EV2A

$$$$
