A71EV2A-x4372_A_201_v2
     RDKit          3D

 19 20  0  0  0  0  0  0  0  0999 V2000
    7.3470   13.0970   22.8730 O   0  0  0  0  0  0  0  0  0  0  0  0
    8.3310   13.3790   23.5390 C   0  0  0  0  0  0  0  0  0  0  0  0
    9.1180   14.4330   23.2400 N   0  0  0  0  0  0  0  0  0  0  0  0
   10.1800   14.9830   24.0990 C   0  0  0  0  0  0  0  0  0  0  0  0
   11.5220   14.9940   23.3670 C   0  0  0  0  0  0  0  0  0  0  0  0
   11.3940   15.6400   21.9850 C   0  0  0  0  0  0  0  0  0  0  0  0
    8.9720   15.1230   21.9570 C   0  0  0  0  0  0  0  0  0  0  0  0
   10.2710   14.9830   21.1680 C   0  0  1  0  0  0  0  0  0  0  0  0
   10.1680   15.5640   19.7680 C   0  0  0  0  0  0  0  0  0  0  0  0
    9.7810   16.7190   19.5840 O   0  0  0  0  0  0  0  0  0  0  0  0
   10.4930   14.7470   18.7810 N   0  0  0  0  0  0  0  0  0  0  0  0
    8.7470   12.5380   24.7320 C   0  0  0  0  0  0  0  0  0  0  0  0
    7.5830   12.2520   25.6510 C   0  0  0  0  0  0  0  0  0  0  0  0
    6.8300   13.2610   26.2640 C   0  0  0  0  0  0  0  0  0  0  0  0
    7.1290   14.5420   26.2580 O   0  0  0  0  0  0  0  0  0  0  0  0
    5.6840   13.0180   27.0350 N   0  0  0  0  0  0  0  0  0  0  0  0
    5.3490   11.7300   27.2030 C   0  0  0  0  0  0  0  0  0  0  0  0
    6.0610   10.6750   26.6680 C   0  0  0  0  0  0  0  0  0  0  0  0
    7.1720   10.9420   25.8840 C   0  0  0  0  0  0  0  0  0  0  0  0
  2  1  2  0
  3  2  1  0
  4  3  1  0
  5  4  1  0
  6  5  1  0
  7  3  1  0
  8  7  1  0
  8  6  1  0
  8  9  1  6
 10  9  2  0
 11  9  1  0
 12  2  1  0
 13 12  1  0
 14 13  2  0
 15 14  1  0
 16 14  1  0
 17 16  2  0
 18 17  1  0
 19 18  2  0
 19 13  1  0
M  END
>  <id>  (1) 
207447

>  <inchikey>  (1) 
YJUWSGAKKBDWFC-JTQLQIEISA-N

>  <alias>  (1) 
A4372a

>  <name>  (1) 
A4372a

>  <smiles>  (1) 
NC(=O)[C@H]1CCCN(C(=O)Cc2cccnc2O)C1

>  <path>  (1) 
/opt/xchem-fragalysis-2/maxwin/2A_HIPPO/A71EV2A_P3only_20241212/aligned_files/A4372a/A4372a.pdb

>  <distance_score>  (1) 
None

>  <energy_score>  (1) 
None

>  <compound>  (1) 
YJUWSGAKKBDWFC-UHFFFAOYSA-N

>  <compound_id>  (1) 
122571

>  <target>  (1) 
A71EV2A

$$$$
