A71EV2A-x4381_A_201_v2
     RDKit          3D

 26 27  0  0  0  0  0  0  0  0999 V2000
    3.8670   11.4330   26.6580 F   0  0  0  0  0  0  0  0  0  0  0  0
    4.8880   12.3190   26.6820 C   0  0  2  0  0  0  0  0  0  0  0  0
    5.0450   12.4210   28.0210 F   0  0  0  0  0  0  0  0  0  0  0  0
    4.3960   13.4780   26.1520 F   0  0  0  0  0  0  0  0  0  0  0  0
    6.1360   11.8200   25.9810 C   0  0  0  0  0  0  0  0  0  0  0  0
    6.2140   10.4330   25.8950 C   0  0  0  0  0  0  0  0  0  0  0  0
    7.3340    9.7950   25.3930 C   0  0  0  0  0  0  0  0  0  0  0  0
    8.4580   10.5280   25.0360 C   0  0  0  0  0  0  0  0  0  0  0  0
    9.4780    9.9810   24.1160 C   0  0  2  0  0  0  0  0  0  0  0  0
    9.2470    8.7190   23.7640 F   0  0  0  0  0  0  0  0  0  0  0  0
   10.6930   10.1080   24.6180 F   0  0  0  0  0  0  0  0  0  0  0  0
    9.5140   10.6710   22.9870 F   0  0  0  0  0  0  0  0  0  0  0  0
    8.4210   11.8920   25.2420 C   0  0  0  0  0  0  0  0  0  0  0  0
    7.2530   12.5610   25.5510 C   0  0  0  0  0  0  0  0  0  0  0  0
    7.1650   13.9250   24.9010 C   0  0  0  0  0  0  0  0  0  0  0  0
    7.7810   13.8910   23.5070 C   0  0  0  0  0  0  0  0  0  0  0  0
    7.3660   13.0860   22.6910 O   0  0  0  0  0  0  0  0  0  0  0  0
    8.7610   14.7730   23.1860 N   0  0  0  0  0  0  0  0  0  0  0  0
    9.8450   15.1970   24.0860 C   0  0  0  0  0  0  0  0  0  0  0  0
   11.2130   15.1050   23.4190 C   0  0  0  0  0  0  0  0  0  0  0  0
   11.2110   15.7910   22.0490 C   0  0  0  0  0  0  0  0  0  0  0  0
    8.7650   15.4400   21.8760 C   0  0  0  0  0  0  0  0  0  0  0  0
   10.1010   15.2340   21.1490 C   0  0  1  0  0  0  0  0  0  0  0  0
   10.1750   15.8340   19.7530 C   0  0  0  0  0  0  0  0  0  0  0  0
    9.9730   17.0340   19.5610 O   0  0  0  0  0  0  0  0  0  0  0  0
   10.4830   14.9990   18.7750 N   0  0  0  0  0  0  0  0  0  0  0  0
  2  1  1  1
  3  2  1  0
  4  2  1  0
  5  2  1  0
  6  5  2  0
  7  6  1  0
  8  7  2  0
  9  8  1  0
  9 10  1  6
 11  9  1  0
 12  9  1  0
 13  8  1  0
 14 13  2  0
 14  5  1  0
 15 14  1  0
 16 15  1  0
 17 16  2  0
 18 16  1  0
 19 18  1  0
 20 19  1  0
 21 20  1  0
 22 18  1  0
 23 22  1  0
 23 21  1  0
 23 24  1  6
 25 24  2  0
 26 24  1  0
M  END
>  <id>  (1) 
207448

>  <inchikey>  (1) 
STXHBHXJQBAUQV-VIFPVBQESA-N

>  <alias>  (1) 
A4381a

>  <name>  (1) 
A4381a

>  <smiles>  (1) 
NC(=O)[C@H]1CCCN(C(=O)Cc2cc(C(F)(F)F)ccc2C(F)(F)F)C1

>  <path>  (1) 
/opt/xchem-fragalysis-2/maxwin/2A_HIPPO/A71EV2A_P3only_20241212/aligned_files/A4381a/A4381a.pdb

>  <distance_score>  (1) 
None

>  <energy_score>  (1) 
None

>  <compound>  (1) 
STXHBHXJQBAUQV-UHFFFAOYSA-N

>  <compound_id>  (1) 
122572

>  <target>  (1) 
A71EV2A

$$$$
