A71EV2A-x3509_A_201_v1
     RDKit          3D

 20 21  0  0  0  0  0  0  0  0999 V2000
   10.0100   17.0330   19.4960 O   0  0  0  0  0  0  0  0  0  0  0  0
   10.4670   15.9140   19.7510 C   0  0  0  0  0  0  0  0  0  0  0  0
   10.6240   14.9750   18.8300 N   0  0  0  0  0  0  0  0  0  0  0  0
   10.8240   15.5150   21.1710 C   0  0  1  0  0  0  0  0  0  0  0  0
   11.6430   16.6200   21.8600 C   0  0  0  0  0  0  0  0  0  0  0  0
   11.9160   16.2830   23.3310 C   0  0  0  0  0  0  0  0  0  0  0  0
   10.6260   15.9980   24.0650 C   0  0  0  0  0  0  0  0  0  0  0  0
    9.5510   15.2440   21.9730 C   0  0  0  0  0  0  0  0  0  0  0  0
    9.8860   14.9390   23.3700 N   0  0  0  0  0  0  0  0  0  0  0  0
    9.6910   13.7590   24.0240 C   0  0  0  0  0  0  0  0  0  0  0  0
    9.7730   13.6830   25.2510 O   0  0  0  0  0  0  0  0  0  0  0  0
    9.3970   12.6830   23.2390 N   0  0  0  0  0  0  0  0  0  0  0  0
    8.7270   11.5310   23.7140 C   0  0  0  0  0  0  0  0  0  0  0  0
    9.0760   10.2770   23.2280 C   0  0  0  0  0  0  0  0  0  0  0  0
    8.3960    9.1520   23.6690 C   0  0  0  0  0  0  0  0  0  0  0  0
    7.3990    9.2650   24.6210 C   0  0  0  0  0  0  0  0  0  0  0  0
    7.7200   11.6520   24.6690 C   0  0  0  0  0  0  0  0  0  0  0  0
    7.0700   10.5100   25.1360 C   0  0  0  0  0  0  0  0  0  0  0  0
    6.0780   10.6230   26.1760 C   0  0  0  0  0  0  0  0  0  0  0  0
    5.2880   10.6780   26.9950 N   0  0  0  0  0  0  0  0  0  0  0  0
  2  1  2  0
  3  2  1  0
  4  2  1  6
  5  4  1  0
  6  5  1  0
  7  6  1  0
  8  4  1  0
  9  8  1  0
  9  7  1  0
 10  9  1  0
 11 10  2  0
 12 10  1  0
 13 12  1  0
 14 13  2  0
 15 14  1  0
 16 15  2  0
 17 13  1  0
 18 16  1  0
 18 17  2  0
 19 18  1  0
 20 19  3  0
M  END
>  <id>  (1) 
207362

>  <inchikey>  (1) 
USAPPLNLVADEDO-NSHDSACASA-N

>  <alias>  (1) 
A3509a

>  <name>  (1) 
A3509a

>  <smiles>  (1) 
N#Cc1cccc(NC(=O)N2CCC[C@H](C(N)=O)C2)c1

>  <path>  (1) 
/opt/xchem-fragalysis-2/maxwin/2A_HIPPO/A71EV2A_P3only_20241211/aligned_files/A3509a/A3509a_hippo.pdb

>  <distance_score>  (1) 
None

>  <energy_score>  (1) 
None

>  <compound>  (1) 
USAPPLNLVADEDO-UHFFFAOYSA-N

>  <compound_id>  (1) 
122444

>  <target>  (1) 
A71EV2A

$$$$
