A71EV2A-x3548_A_201_v1
     RDKit          3D

 20 21  0  0  0  0  0  0  0  0999 V2000
   10.0130   16.9990   19.4080 O   0  0  0  0  0  0  0  0  0  0  0  0
   10.3710   15.8340   19.5860 C   0  0  0  0  0  0  0  0  0  0  0  0
   10.6680   15.0200   18.5910 N   0  0  0  0  0  0  0  0  0  0  0  0
   10.4940   15.2570   20.9860 C   0  0  1  0  0  0  0  0  0  0  0  0
   11.4060   16.1310   21.8600 C   0  0  0  0  0  0  0  0  0  0  0  0
   11.4630   15.6240   23.3010 C   0  0  0  0  0  0  0  0  0  0  0  0
   10.0660   15.5140   23.8890 C   0  0  0  0  0  0  0  0  0  0  0  0
    9.1090   15.2230   21.6440 C   0  0  0  0  0  0  0  0  0  0  0  0
    9.1850   14.7180   23.0190 N   0  0  0  0  0  0  0  0  0  0  0  0
    8.4450   13.6630   23.4420 C   0  0  0  0  0  0  0  0  0  0  0  0
    7.6060   13.1240   22.7290 O   0  0  0  0  0  0  0  0  0  0  0  0
    8.6820   13.1900   24.8640 C   0  0  0  0  0  0  0  0  0  0  0  0
    7.8360   11.9900   25.2320 C   0  0  0  0  0  0  0  0  0  0  0  0
    8.1050   10.7180   24.7090 C   0  0  0  0  0  0  0  0  0  0  0  0
    9.1960   10.6390   23.8850 O   0  0  0  0  0  0  0  0  0  0  0  0
    9.5380    9.3660   23.3480 C   0  0  0  0  0  0  0  0  0  0  0  0
    6.8120   12.0650   26.1590 C   0  0  0  0  0  0  0  0  0  0  0  0
    6.0790   11.0290   26.5760 N   0  0  0  0  0  0  0  0  0  0  0  0
    6.3490    9.8390   26.0370 C   0  0  0  0  0  0  0  0  0  0  0  0
    7.3420    9.6310   25.0970 C   0  0  0  0  0  0  0  0  0  0  0  0
  2  1  2  0
  3  2  1  0
  4  2  1  6
  5  4  1  0
  6  5  1  0
  7  6  1  0
  8  4  1  0
  9  8  1  0
  9  7  1  0
 10  9  1  0
 11 10  2  0
 12 10  1  0
 13 12  1  0
 14 13  2  0
 15 14  1  0
 16 15  1  0
 17 13  1  0
 18 17  2  0
 19 18  1  0
 20 19  2  0
 20 14  1  0
M  END
>  <id>  (1) 
207366

>  <inchikey>  (1) 
ZKUXUDCBALXGFV-JTQLQIEISA-N

>  <alias>  (1) 
A3548a

>  <name>  (1) 
A3548a

>  <smiles>  (1) 
COc1ccncc1CC(=O)N1CCC[C@H](C(N)=O)C1

>  <path>  (1) 
/opt/xchem-fragalysis-2/maxwin/2A_HIPPO/A71EV2A_P3only_20241211/aligned_files/A3548a/A3548a.pdb

>  <distance_score>  (1) 
None

>  <energy_score>  (1) 
None

>  <compound>  (1) 
ZKUXUDCBALXGFV-UHFFFAOYSA-N

>  <compound_id>  (1) 
125

>  <target>  (1) 
A71EV2A

$$$$
