A71EV2A-x3557_A_201_v1
     RDKit          3D

 22 23  0  0  0  0  0  0  0  0999 V2000
    9.8190   16.8530   19.4530 O   0  0  0  0  0  0  0  0  0  0  0  0
   10.2550   15.7170   19.6790 C   0  0  0  0  0  0  0  0  0  0  0  0
   10.5530   14.8480   18.7220 N   0  0  0  0  0  0  0  0  0  0  0  0
   10.3650   15.1880   21.0960 C   0  0  1  0  0  0  0  0  0  0  0  0
   11.5070   15.8540   21.8790 C   0  0  0  0  0  0  0  0  0  0  0  0
   11.5980   15.2760   23.2930 C   0  0  0  0  0  0  0  0  0  0  0  0
   10.2460   15.3550   23.9960 C   0  0  0  0  0  0  0  0  0  0  0  0
    9.0300   15.3100   21.8320 C   0  0  0  0  0  0  0  0  0  0  0  0
    9.1780   14.7510   23.1770 N   0  0  0  0  0  0  0  0  0  0  0  0
    8.4120   13.7090   23.5560 C   0  0  0  0  0  0  0  0  0  0  0  0
    7.5080   13.2690   22.8590 O   0  0  0  0  0  0  0  0  0  0  0  0
    8.7490   13.1160   24.9070 C   0  0  0  0  0  0  0  0  0  0  0  0
    7.7000   12.1270   25.3490 C   0  0  0  0  0  0  0  0  0  0  0  0
    6.6740   12.5050   26.2080 C   0  0  0  0  0  0  0  0  0  0  0  0
    5.7870   11.5730   26.7110 C   0  0  0  0  0  0  0  0  0  0  0  0
    7.8040   10.7840   24.9790 C   0  0  0  0  0  0  0  0  0  0  0  0
    8.8250   10.5110   24.1040 O   0  0  0  0  0  0  0  0  0  0  0  0
    9.1130    9.1400   23.7850 C   0  0  0  0  0  0  0  0  0  0  0  0
    6.9220    9.8460   25.4830 C   0  0  0  0  0  0  0  0  0  0  0  0
    5.9120   10.2480   26.3430 C   0  0  0  0  0  0  0  0  0  0  0  0
    5.0440    9.2680   26.7490 O   0  0  0  0  0  0  0  0  0  0  0  0
    3.9550    9.6440   27.6060 C   0  0  0  0  0  0  0  0  0  0  0  0
  2  1  2  0
  3  2  1  0
  4  2  1  6
  5  4  1  0
  6  5  1  0
  7  6  1  0
  8  4  1  0
  9  8  1  0
  9  7  1  0
 10  9  1  0
 11 10  2  0
 12 10  1  0
 13 12  1  0
 14 13  2  0
 15 14  1  0
 16 13  1  0
 17 16  1  0
 18 17  1  0
 19 16  2  0
 20 19  1  0
 20 15  2  0
 21 20  1  0
 22 21  1  0
M  END
>  <id>  (1) 
207370

>  <inchikey>  (1) 
QQFWJWWIQVMKHZ-LBPRGKRZSA-N

>  <alias>  (1) 
A3557a

>  <name>  (1) 
A3557a

>  <smiles>  (1) 
COc1ccc(CC(=O)N2CCC[C@H](C(N)=O)C2)c(OC)c1

>  <path>  (1) 
/opt/xchem-fragalysis-2/maxwin/2A_HIPPO/A71EV2A_P3only_20241211/aligned_files/A3557a/A3557a_hippo.pdb

>  <distance_score>  (1) 
None

>  <energy_score>  (1) 
None

>  <compound>  (1) 
QQFWJWWIQVMKHZ-UHFFFAOYSA-N

>  <compound_id>  (1) 
122450

>  <target>  (1) 
A71EV2A

$$$$
