A71EV2A-x3575_A_201_v1
     RDKit          3D

 22 23  0  0  0  0  0  0  0  0999 V2000
    9.8760   16.9870   19.5030 O   0  0  0  0  0  0  0  0  0  0  0  0
   10.2540   15.8290   19.7270 C   0  0  0  0  0  0  0  0  0  0  0  0
   10.5820   14.9760   18.7750 N   0  0  0  0  0  0  0  0  0  0  0  0
   10.3890   15.3110   21.1480 C   0  0  1  0  0  0  0  0  0  0  0  0
   11.5120   16.0370   21.9120 C   0  0  0  0  0  0  0  0  0  0  0  0
   11.6000   15.6090   23.3840 C   0  0  0  0  0  0  0  0  0  0  0  0
   10.2380   15.6210   24.0580 C   0  0  0  0  0  0  0  0  0  0  0  0
    9.0780   15.4890   21.9030 C   0  0  0  0  0  0  0  0  0  0  0  0
    9.2460   14.9100   23.2370 N   0  0  0  0  0  0  0  0  0  0  0  0
    8.5820   13.7850   23.5680 C   0  0  0  0  0  0  0  0  0  0  0  0
    7.6940   13.3220   22.8680 O   0  0  0  0  0  0  0  0  0  0  0  0
    8.9940   13.1300   24.8710 C   0  0  0  0  0  0  0  0  0  0  0  0
    8.2230   11.8530   25.0930 C   0  0  0  0  0  0  0  0  0  0  0  0
    7.0870   11.8230   25.9020 C   0  0  0  0  0  0  0  0  0  0  0  0
    6.6590   12.9940   26.5030 O   0  0  0  0  0  0  0  0  0  0  0  0
    5.6540   13.7530   25.8210 C   0  0  0  0  0  0  0  0  0  0  0  0
    8.6260   10.6690   24.4760 C   0  0  0  0  0  0  0  0  0  0  0  0
    7.9430    9.4880   24.6940 C   0  0  0  0  0  0  0  0  0  0  0  0
    6.8300    9.4660   25.5170 C   0  0  0  0  0  0  0  0  0  0  0  0
    6.3730   10.6410   26.1160 C   0  0  0  0  0  0  0  0  0  0  0  0
    5.1250   10.6290   26.8270 C   0  0  0  0  0  0  0  0  0  0  0  0
    4.1330   10.6690   27.3910 N   0  0  0  0  0  0  0  0  0  0  0  0
  2  1  2  0
  3  2  1  0
  4  2  1  6
  5  4  1  0
  6  5  1  0
  7  6  1  0
  8  4  1  0
  9  8  1  0
  9  7  1  0
 10  9  1  0
 11 10  2  0
 12 10  1  0
 13 12  1  0
 14 13  2  0
 15 14  1  0
 16 15  1  0
 17 13  1  0
 18 17  2  0
 19 18  1  0
 20 19  2  0
 20 14  1  0
 21 20  1  0
 22 21  3  0
M  END
>  <id>  (1) 
207373

>  <inchikey>  (1) 
VDGDDJZRHZPZCA-ZDUSSCGKSA-N

>  <alias>  (1) 
A3575a

>  <name>  (1) 
A3575a

>  <smiles>  (1) 
COc1c(C#N)cccc1CC(=O)N1CCC[C@H](C(N)=O)C1

>  <path>  (1) 
/opt/xchem-fragalysis-2/maxwin/2A_HIPPO/A71EV2A_P3only_20241211/aligned_files/A3575a/A3575a.pdb

>  <distance_score>  (1) 
None

>  <energy_score>  (1) 
None

>  <compound>  (1) 
VDGDDJZRHZPZCA-UHFFFAOYSA-N

>  <compound_id>  (1) 
122453

>  <target>  (1) 
A71EV2A

$$$$
