A71EV2A-x3585_A_201_v1
     RDKit          3D

 23 25  0  0  0  0  0  0  0  0999 V2000
    9.7200   16.9380   19.5970 O   0  0  0  0  0  0  0  0  0  0  0  0
   10.2270   15.8450   19.8680 C   0  0  0  0  0  0  0  0  0  0  0  0
   10.7280   15.0370   18.9510 N   0  0  0  0  0  0  0  0  0  0  0  0
   10.2800   15.3380   21.2990 C   0  0  1  0  0  0  0  0  0  0  0  0
   11.3900   16.0300   22.1030 C   0  0  0  0  0  0  0  0  0  0  0  0
   11.4470   15.4960   23.5380 C   0  0  0  0  0  0  0  0  0  0  0  0
   10.0790   15.5900   24.2220 C   0  0  0  0  0  0  0  0  0  0  0  0
    8.9880   15.6900   22.0460 C   0  0  0  0  0  0  0  0  0  0  0  0
    9.0030   15.0570   23.3670 N   0  0  0  0  0  0  0  0  0  0  0  0
    8.4750   13.8010   23.4910 C   0  0  0  0  0  0  0  0  0  0  0  0
    7.6840   13.3530   22.6710 O   0  0  0  0  0  0  0  0  0  0  0  0
    8.8390   13.1030   24.5970 N   0  0  0  0  0  0  0  0  0  0  0  0
    8.4510   11.7590   24.8240 C   0  0  0  0  0  0  0  0  0  0  0  0
    9.1560   10.7050   24.2510 C   0  0  0  0  0  0  0  0  0  0  0  0
    7.3480   11.4870   25.6470 C   0  0  0  0  0  0  0  0  0  0  0  0
    7.0080   10.1410   25.8720 C   0  0  0  0  0  0  0  0  0  0  0  0
    5.9360   10.1520   26.7110 N   0  0  0  0  0  0  0  0  0  0  0  0
    5.3230    9.0270   27.4070 C   0  0  0  0  0  0  0  0  0  0  0  0
    5.5450   11.4260   27.0070 N   0  0  0  0  0  0  0  0  0  0  0  0
    6.3840   12.2250   26.3830 C   0  0  0  0  0  0  0  0  0  0  0  0
    7.7130    9.1020   25.2690 C   0  0  0  0  0  0  0  0  0  0  0  0
    8.7970    9.3770   24.4440 C   0  0  0  0  0  0  0  0  0  0  0  0
    9.5560    8.2640   23.7590 C   0  0  0  0  0  0  0  0  0  0  0  0
  2  1  2  0
  3  2  1  0
  4  2  1  6
  5  4  1  0
  6  5  1  0
  7  6  1  0
  8  4  1  0
  9  8  1  0
  9  7  1  0
 10  9  1  0
 11 10  2  0
 12 10  1  0
 13 12  1  0
 14 13  2  0
 15 13  1  0
 16 15  2  0
 17 16  1  0
 18 17  1  0
 19 17  1  0
 20 19  2  0
 20 15  1  0
 21 16  1  0
 22 21  2  0
 22 14  1  0
 23 22  1  0
M  END
>  <id>  (1) 
207376

>  <inchikey>  (1) 
SHBNFEQFDBWXOH-NSHDSACASA-N

>  <alias>  (1) 
A3585a

>  <name>  (1) 
A3585a

>  <smiles>  (1) 
Cc1cc(NC(=O)N2CCC[C@H](C(N)=O)C2)c2cnn(C)c2c1

>  <path>  (1) 
/opt/xchem-fragalysis-2/maxwin/2A_HIPPO/A71EV2A_P3only_20241211/aligned_files/A3585a/A3585a.pdb

>  <distance_score>  (1) 
None

>  <energy_score>  (1) 
None

>  <compound>  (1) 
SHBNFEQFDBWXOH-UHFFFAOYSA-N

>  <compound_id>  (1) 
122456

>  <target>  (1) 
A71EV2A

$$$$
