A71EV2A-x3581_A_201_v1
     RDKit          3D

 19 20  0  0  0  0  0  0  0  0999 V2000
    9.8170   16.5990   19.5430 O   0  0  0  0  0  0  0  0  0  0  0  0
   10.4740   15.5570   19.6880 C   0  0  0  0  0  0  0  0  0  0  0  0
   10.8980   14.8280   18.6680 N   0  0  0  0  0  0  0  0  0  0  0  0
   10.7790   14.9980   21.0680 C   0  0  1  0  0  0  0  0  0  0  0  0
   11.5000   15.9200   22.0700 C   0  0  0  0  0  0  0  0  0  0  0  0
   11.2880   15.2040   23.4040 C   0  0  0  0  0  0  0  0  0  0  0  0
    9.5120   14.6180   21.8450 C   0  0  0  0  0  0  0  0  0  0  0  0
    9.9580   14.5870   23.2450 N   0  0  0  0  0  0  0  0  0  0  0  0
    9.2140   14.1040   24.2670 C   0  0  0  0  0  0  0  0  0  0  0  0
    9.5800   14.1900   25.4330 O   0  0  0  0  0  0  0  0  0  0  0  0
    7.8380   13.5650   23.9100 C   0  0  0  0  0  0  0  0  0  0  0  0
    7.3430   12.4690   24.8290 C   0  0  0  0  0  0  0  0  0  0  0  0
    7.7230   11.1430   24.6140 C   0  0  0  0  0  0  0  0  0  0  0  0
    8.6560   10.9640   23.6260 O   0  0  0  0  0  0  0  0  0  0  0  0
    9.1900    9.6450   23.4420 C   0  0  0  0  0  0  0  0  0  0  0  0
    6.4120   12.7330   25.8340 C   0  0  0  0  0  0  0  0  0  0  0  0
    5.8570   11.7040   26.5830 C   0  0  0  0  0  0  0  0  0  0  0  0
    6.2240   10.3980   26.3400 C   0  0  0  0  0  0  0  0  0  0  0  0
    7.1540   10.1090   25.3500 C   0  0  0  0  0  0  0  0  0  0  0  0
  2  1  2  0
  3  2  1  0
  4  2  1  6
  5  4  1  0
  6  5  1  0
  7  4  1  0
  8  7  1  0
  8  6  1  0
  9  8  1  0
 10  9  2  0
 11  9  1  0
 12 11  1  0
 13 12  2  0
 14 13  1  0
 15 14  1  0
 16 12  1  0
 17 16  2  0
 18 17  1  0
 19 18  2  0
 19 13  1  0
M  END
>  <id>  (1) 
207375

>  <inchikey>  (1) 
ACVLTQNPXWHBQP-NSHDSACASA-N

>  <alias>  (1) 
A3581a

>  <name>  (1) 
A3581a

>  <smiles>  (1) 
COc1ccccc1CC(=O)N1CC[C@H](C(N)=O)C1

>  <path>  (1) 
/opt/xchem-fragalysis-2/maxwin/2A_HIPPO/A71EV2A_P3only_20241211/aligned_files/A3581a/A3581a.pdb

>  <distance_score>  (1) 
None

>  <energy_score>  (1) 
None

>  <compound>  (1) 
ACVLTQNPXWHBQP-UHFFFAOYSA-N

>  <compound_id>  (1) 
122455

>  <target>  (1) 
A71EV2A

$$$$
