A71EV2A-x3606_A_201_v1
     RDKit          3D

 26 28  0  0  0  0  0  0  0  0999 V2000
    9.7270   16.7100   19.6100 O   0  0  0  0  0  0  0  0  0  0  0  0
   10.1940   15.5840   19.8130 C   0  0  0  0  0  0  0  0  0  0  0  0
   10.5910   14.7830   18.8380 N   0  0  0  0  0  0  0  0  0  0  0  0
   10.2790   15.0080   21.2140 C   0  0  1  0  0  0  0  0  0  0  0  0
   11.3520   15.7000   22.0740 C   0  0  0  0  0  0  0  0  0  0  0  0
   11.3830   15.1010   23.4830 C   0  0  0  0  0  0  0  0  0  0  0  0
    9.9950   15.1340   24.1160 C   0  0  0  0  0  0  0  0  0  0  0  0
    8.9140   15.1520   21.8970 C   0  0  0  0  0  0  0  0  0  0  0  0
    8.9870   14.5390   23.2230 N   0  0  0  0  0  0  0  0  0  0  0  0
    8.2290   13.4640   23.5220 C   0  0  0  0  0  0  0  0  0  0  0  0
    7.3270   13.0790   22.7940 O   0  0  0  0  0  0  0  0  0  0  0  0
    8.5260   12.8130   24.8540 C   0  0  0  0  0  0  0  0  0  0  0  0
    7.7460   11.5680   25.0790 C   0  0  0  0  0  0  0  0  0  0  0  0
    8.1540   10.3350   24.6460 N   0  0  0  0  0  0  0  0  0  0  0  0
    9.3610    9.9910   23.9020 C   0  0  0  0  0  0  0  0  0  0  0  0
    6.5880   11.3740   25.7930 C   0  0  0  0  0  0  0  0  0  0  0  0
    6.3580    9.9920   25.7260 C   0  0  0  0  0  0  0  0  0  0  0  0
    7.2950    9.3570   25.0390 N   0  0  0  0  0  0  0  0  0  0  0  0
    5.8080   12.3840   26.5590 C   0  0  0  0  0  0  0  0  0  0  0  0
    4.8320   11.9660   27.4580 C   0  0  0  0  0  0  0  0  0  0  0  0
    4.2610   12.8880   28.3140 C   0  0  0  0  0  0  0  0  0  0  0  0
    3.1300   12.3320   29.5180 Cl  0  0  0  0  0  0  0  0  0  0  0  0
    4.6080   14.2260   28.2890 C   0  0  0  0  0  0  0  0  0  0  0  0
    5.5640   14.6250   27.3750 C   0  0  0  0  0  0  0  0  0  0  0  0
    6.0160   16.3130   27.3060 Cl  0  0  0  0  0  0  0  0  0  0  0  0
    6.1570   13.7330   26.5040 C   0  0  0  0  0  0  0  0  0  0  0  0
  2  1  2  0
  3  2  1  0
  4  2  1  6
  5  4  1  0
  6  5  1  0
  7  6  1  0
  8  4  1  0
  9  8  1  0
  9  7  1  0
 10  9  1  0
 11 10  2  0
 12 10  1  0
 13 12  1  0
 14 13  1  0
 15 14  1  0
 16 13  2  0
 17 16  1  0
 18 17  2  0
 18 14  1  0
 19 16  1  0
 20 19  2  0
 21 20  1  0
 22 21  1  0
 23 21  2  0
 24 23  1  0
 25 24  1  0
 26 19  1  0
 26 24  2  0
M  END
>  <id>  (1) 
207379

>  <inchikey>  (1) 
CSGCLFRVJTXKQJ-NSHDSACASA-N

>  <alias>  (1) 
A3606a

>  <name>  (1) 
A3606a

>  <smiles>  (1) 
Cn1ncc(-c2cc(Cl)cc(Cl)c2)c1CC(=O)N1CCC[C@H](C(N)=O)C1

>  <path>  (1) 
/opt/xchem-fragalysis-2/maxwin/2A_HIPPO/A71EV2A_P3only_20241211/aligned_files/A3606a/A3606a.pdb

>  <distance_score>  (1) 
None

>  <energy_score>  (1) 
None

>  <compound>  (1) 
CSGCLFRVJTXKQJ-UHFFFAOYSA-N

>  <compound_id>  (1) 
122458

>  <target>  (1) 
A71EV2A

$$$$
