A71EV2A-x3612_A_201_v1
     RDKit          3D

 19 20  0  0  0  0  0  0  0  0999 V2000
    8.7590   10.9720   23.7290 F   0  0  0  0  0  0  0  0  0  0  0  0
    7.8040   11.0400   24.6950 C   0  0  0  0  0  0  0  0  0  0  0  0
    7.1550    9.8900   25.0800 C   0  0  0  0  0  0  0  0  0  0  0  0
    6.2010    9.9780   26.0860 C   0  0  0  0  0  0  0  0  0  0  0  0
    5.9330   11.1910   26.6860 C   0  0  0  0  0  0  0  0  0  0  0  0
    6.5940   12.3400   26.2770 C   0  0  0  0  0  0  0  0  0  0  0  0
    7.5410   12.2810   25.2540 C   0  0  0  0  0  0  0  0  0  0  0  0
    8.2170   13.4130   24.7350 N   0  0  0  0  0  0  0  0  0  0  0  0
    8.1290   13.8270   23.4380 C   0  0  0  0  0  0  0  0  0  0  0  0
    7.3300   13.3420   22.6460 O   0  0  0  0  0  0  0  0  0  0  0  0
    8.9260   14.8760   23.0850 N   0  0  0  0  0  0  0  0  0  0  0  0
    9.9380   15.5170   23.9390 C   0  0  0  0  0  0  0  0  0  0  0  0
   11.3090   15.4870   23.2970 C   0  0  0  0  0  0  0  0  0  0  0  0
   11.2550   15.9950   21.8520 C   0  0  0  0  0  0  0  0  0  0  0  0
    8.8460   15.4310   21.7300 C   0  0  0  0  0  0  0  0  0  0  0  0
   10.1910   15.2580   21.0180 C   0  0  1  0  0  0  0  0  0  0  0  0
   10.1220   15.8040   19.6020 C   0  0  0  0  0  0  0  0  0  0  0  0
    9.6890   16.9420   19.3770 O   0  0  0  0  0  0  0  0  0  0  0  0
   10.6070   15.0140   18.6560 N   0  0  0  0  0  0  0  0  0  0  0  0
  2  1  1  0
  3  2  2  0
  4  3  1  0
  5  4  2  0
  6  5  1  0
  7  6  2  0
  7  2  1  0
  8  7  1  0
  9  8  1  0
 10  9  2  0
 11  9  1  0
 12 11  1  0
 13 12  1  0
 14 13  1  0
 15 11  1  0
 16 15  1  0
 16 14  1  0
 16 17  1  6
 18 17  2  0
 19 17  1  0
M  END
>  <id>  (1) 
207380

>  <inchikey>  (1) 
SIJSHILCUHKBHW-VIFPVBQESA-N

>  <alias>  (1) 
A3612a

>  <name>  (1) 
A3612a

>  <smiles>  (1) 
NC(=O)[C@H]1CCCN(C(=O)Nc2ccccc2F)C1

>  <path>  (1) 
/opt/xchem-fragalysis-2/maxwin/2A_HIPPO/A71EV2A_P3only_20241211/aligned_files/A3612a/A3612a.pdb

>  <distance_score>  (1) 
None

>  <energy_score>  (1) 
None

>  <compound>  (1) 
SIJSHILCUHKBHW-UHFFFAOYSA-N

>  <compound_id>  (1) 
122459

>  <target>  (1) 
A71EV2A

$$$$
