A71EV2A-x3616_A_201_v1
     RDKit          3D

 20 21  0  0  0  0  0  0  0  0999 V2000
    9.7690   17.0030   19.3910 O   0  0  0  0  0  0  0  0  0  0  0  0
   10.1040   15.8470   19.6750 C   0  0  0  0  0  0  0  0  0  0  0  0
   10.4130   14.9370   18.7560 N   0  0  0  0  0  0  0  0  0  0  0  0
   10.1400   15.3700   21.1150 C   0  0  1  0  0  0  0  0  0  0  0  0
   11.4860   15.6750   21.7810 C   0  0  0  0  0  0  0  0  0  0  0  0
   11.4750   15.2310   23.2430 C   0  0  0  0  0  0  0  0  0  0  0  0
   10.2590   15.7890   23.9930 C   0  0  0  0  0  0  0  0  0  0  0  0
    9.0050   16.0360   21.8920 C   0  0  0  0  0  0  0  0  0  0  0  0
    8.9930   15.5390   23.2720 N   0  0  0  0  0  0  0  0  0  0  0  0
    8.0010   14.6620   23.6380 C   0  0  0  0  0  0  0  0  0  0  0  0
    7.1570   14.2620   22.8370 O   0  0  0  0  0  0  0  0  0  0  0  0
    7.9920   14.2870   24.9250 N   0  0  0  0  0  0  0  0  0  0  0  0
    7.1060   13.2230   25.3830 C   0  0  0  0  0  0  0  0  0  0  0  0
    7.5160   11.8280   24.9490 C   0  0  0  0  0  0  0  0  0  0  0  0
    6.7570   10.7320   25.3820 C   0  0  0  0  0  0  0  0  0  0  0  0
    5.6130   10.8820   26.3500 C   0  0  0  0  0  0  0  0  0  0  0  0
    8.6190   11.6060   24.1250 C   0  0  0  0  0  0  0  0  0  0  0  0
    8.9550   10.3260   23.7150 C   0  0  0  0  0  0  0  0  0  0  0  0
    8.1760    9.2630   24.0830 C   0  0  0  0  0  0  0  0  0  0  0  0
    7.0960    9.4610   24.9140 C   0  0  0  0  0  0  0  0  0  0  0  0
  2  1  2  0
  3  2  1  0
  4  2  1  6
  5  4  1  0
  6  5  1  0
  7  6  1  0
  8  4  1  0
  9  8  1  0
  9  7  1  0
 10  9  1  0
 11 10  2  0
 12 10  1  0
 13 12  1  0
 14 13  1  0
 15 14  2  0
 16 15  1  0
 17 14  1  0
 18 17  2  0
 19 18  1  0
 20 19  2  0
 20 15  1  0
M  END
>  <id>  (1) 
207381

>  <inchikey>  (1) 
XDPSLKIUHCZBTI-ZDUSSCGKSA-N

>  <alias>  (1) 
A3616a

>  <name>  (1) 
A3616a

>  <smiles>  (1) 
Cc1ccccc1CNC(=O)N1CCC[C@H](C(N)=O)C1

>  <path>  (1) 
/opt/xchem-fragalysis-2/maxwin/2A_HIPPO/A71EV2A_P3only_20241211/aligned_files/A3616a/A3616a_hippo.pdb

>  <distance_score>  (1) 
None

>  <energy_score>  (1) 
None

>  <compound>  (1) 
XDPSLKIUHCZBTI-UHFFFAOYSA-N

>  <compound_id>  (1) 
122460

>  <target>  (1) 
A71EV2A

$$$$
