A71EV2A-x3634_A_201_v1
     RDKit          3D

 20 21  0  0  0  0  0  0  0  0999 V2000
    9.6240   16.9080   18.9920 O   0  0  0  0  0  0  0  0  0  0  0  0
    9.9970   15.8420   19.4900 C   0  0  0  0  0  0  0  0  0  0  0  0
   10.6110   14.8820   18.7950 N   0  0  0  0  0  0  0  0  0  0  0  0
    9.7620   15.5790   20.9520 C   0  0  1  0  0  0  0  0  0  0  0  0
    8.5630   14.6710   21.1960 C   0  0  0  0  0  0  0  0  0  0  0  0
   10.8930   15.0080   21.8370 C   0  0  1  0  0  0  0  0  0  0  0  0
   11.9600   16.0420   22.1940 C   0  0  0  0  0  0  0  0  0  0  0  0
   10.1430   14.4770   23.0530 C   0  0  0  0  0  0  0  0  0  0  0  0
    8.8190   14.1310   22.5280 N   0  0  0  0  0  0  0  0  0  0  0  0
    7.8640   13.4550   23.1830 C   0  0  0  0  0  0  0  0  0  0  0  0
    6.7850   13.2070   22.6800 O   0  0  0  0  0  0  0  0  0  0  0  0
    8.1980   13.0690   24.6110 C   0  0  0  0  0  0  0  0  0  0  0  0
    7.3140   11.9580   25.1240 C   0  0  0  0  0  0  0  0  0  0  0  0
    7.5720   10.6450   24.7480 C   0  0  0  0  0  0  0  0  0  0  0  0
    8.4940   10.5170   23.7420 O   0  0  0  0  0  0  0  0  0  0  0  0
    9.4590    9.4690   23.8260 C   0  0  0  0  0  0  0  0  0  0  0  0
    6.2960   12.2010   26.0440 C   0  0  0  0  0  0  0  0  0  0  0  0
    5.5900   11.1540   26.6130 C   0  0  0  0  0  0  0  0  0  0  0  0
    5.8760    9.8600   26.2560 C   0  0  0  0  0  0  0  0  0  0  0  0
    6.8610    9.5930   25.3110 C   0  0  0  0  0  0  0  0  0  0  0  0
  2  1  2  0
  3  2  1  0
  4  2  1  6
  5  4  1  0
  6  4  1  0
  6  7  1  1
  8  6  1  0
  9  5  1  0
  9  8  1  0
 10  9  1  0
 11 10  2  0
 12 10  1  0
 13 12  1  0
 14 13  2  0
 15 14  1  0
 16 15  1  0
 17 13  1  0
 18 17  2  0
 19 18  1  0
 20 19  2  0
 20 14  1  0
M  END
>  <id>  (1) 
207383

>  <inchikey>  (1) 
YUYPXSAJEYKAGG-JQWIXIFHSA-N

>  <alias>  (1) 
A3634a

>  <name>  (1) 
A3634a

>  <smiles>  (1) 
COc1ccccc1CC(=O)N1C[C@H](C(N)=O)[C@@H](C)C1

>  <path>  (1) 
/opt/xchem-fragalysis-2/maxwin/2A_HIPPO/A71EV2A_P3only_20241211/aligned_files/A3634a/A3634a.pdb

>  <distance_score>  (1) 
None

>  <energy_score>  (1) 
None

>  <compound>  (1) 
YUYPXSAJEYKAGG-UHFFFAOYSA-N

>  <compound_id>  (1) 
122462

>  <target>  (1) 
A71EV2A

$$$$
