A71EV2A-x3665_A_201_v1
     RDKit          3D

 22 23  0  0  0  0  0  0  0  0999 V2000
   11.6750   14.3470   23.8120 F   0  0  0  0  0  0  0  0  0  0  0  0
   11.1150   15.5950   23.6740 C   0  0  1  0  0  0  0  0  0  0  0  0
   11.8940   16.4040   24.4720 F   0  0  0  0  0  0  0  0  0  0  0  0
   11.2190   16.0460   22.2340 C   0  0  0  0  0  0  0  0  0  0  0  0
   10.2790   15.2500   21.3040 C   0  0  2  0  0  0  0  0  0  0  0  0
   10.2980   15.7800   19.8770 C   0  0  0  0  0  0  0  0  0  0  0  0
    9.9080   16.9240   19.6150 O   0  0  0  0  0  0  0  0  0  0  0  0
   10.7140   14.9350   18.9500 N   0  0  0  0  0  0  0  0  0  0  0  0
    8.8500   15.2740   21.8580 C   0  0  0  0  0  0  0  0  0  0  0  0
    9.6300   15.5500   24.1760 C   0  0  0  0  0  0  0  0  0  0  0  0
    8.8220   14.7660   23.2360 N   0  0  0  0  0  0  0  0  0  0  0  0
    8.0820   13.6840   23.5650 C   0  0  0  0  0  0  0  0  0  0  0  0
    7.2640   13.2010   22.7960 O   0  0  0  0  0  0  0  0  0  0  0  0
    8.3110   13.1290   24.9600 C   0  0  0  0  0  0  0  0  0  0  0  0
    7.4630   11.9210   25.2870 C   0  0  0  0  0  0  0  0  0  0  0  0
    7.7980   10.6610   24.7870 C   0  0  0  0  0  0  0  0  0  0  0  0
    8.8930   10.6410   23.9620 O   0  0  0  0  0  0  0  0  0  0  0  0
    9.3840    9.3760   23.5210 C   0  0  0  0  0  0  0  0  0  0  0  0
    6.4040   12.0120   26.1890 C   0  0  0  0  0  0  0  0  0  0  0  0
    5.6870   10.8910   26.5630 C   0  0  0  0  0  0  0  0  0  0  0  0
    6.0220    9.6630   26.0600 C   0  0  0  0  0  0  0  0  0  0  0  0
    7.0810    9.5340   25.1720 C   0  0  0  0  0  0  0  0  0  0  0  0
  2  1  1  6
  3  2  1  0
  4  2  1  0
  5  4  1  0
  5  6  1  6
  7  6  2  0
  8  6  1  0
  9  5  1  0
 10  2  1  0
 11 10  1  0
 11  9  1  0
 12 11  1  0
 13 12  2  0
 14 12  1  0
 15 14  1  0
 16 15  2  0
 17 16  1  0
 18 17  1  0
 19 15  1  0
 20 19  2  0
 21 20  1  0
 22 21  2  0
 22 16  1  0
M  END
>  <id>  (1) 
207385

>  <inchikey>  (1) 
DUWCUXLXYUMFLN-NSHDSACASA-N

>  <alias>  (1) 
A3665a

>  <name>  (1) 
A3665a

>  <smiles>  (1) 
COc1ccccc1CC(=O)N1C[C@@H](C(N)=O)CC(F)(F)C1

>  <path>  (1) 
/opt/xchem-fragalysis-2/maxwin/2A_HIPPO/A71EV2A_P3only_20241211/aligned_files/A3665a/A3665a.pdb

>  <distance_score>  (1) 
None

>  <energy_score>  (1) 
None

>  <compound>  (1) 
DUWCUXLXYUMFLN-UHFFFAOYSA-N

>  <compound_id>  (1) 
122464

>  <target>  (1) 
A71EV2A

$$$$
