A71EV2A-x3685_A_201_v1
     RDKit          3D

 20 21  0  0  0  0  0  0  0  0999 V2000
    9.8310   16.4460   19.5350 O   0  0  0  0  0  0  0  0  0  0  0  0
   10.5510   15.4340   19.5120 C   0  0  0  0  0  0  0  0  0  0  0  0
   10.9150   14.8490   18.3660 N   0  0  0  0  0  0  0  0  0  0  0  0
   11.0960   14.9080   20.6460 N   0  0  0  0  0  0  0  0  0  0  0  0
   10.6970   15.2640   22.0170 C   0  0  2  0  0  0  0  0  0  0  0  0
   11.7140   14.7970   23.0370 C   0  0  0  0  0  0  0  0  0  0  0  0
   10.9650   14.8130   24.3600 C   0  0  0  0  0  0  0  0  0  0  0  0
    9.4380   14.4910   22.5060 C   0  0  0  0  0  0  0  0  0  0  0  0
    9.6080   14.4400   23.9630 N   0  0  0  0  0  0  0  0  0  0  0  0
    8.6760   14.1380   24.8930 C   0  0  0  0  0  0  0  0  0  0  0  0
    8.9010   14.2370   26.0960 O   0  0  0  0  0  0  0  0  0  0  0  0
    7.3500   13.6040   24.3820 C   0  0  0  0  0  0  0  0  0  0  0  0
    6.8820   12.3660   25.1260 C   0  0  0  0  0  0  0  0  0  0  0  0
    7.3880   11.1060   24.8000 C   0  0  0  0  0  0  0  0  0  0  0  0
    8.3790   11.1130   23.8650 O   0  0  0  0  0  0  0  0  0  0  0  0
    8.9870    9.8680   23.5290 C   0  0  0  0  0  0  0  0  0  0  0  0
    5.8800   12.4350   26.0910 C   0  0  0  0  0  0  0  0  0  0  0  0
    5.3810   11.2870   26.6880 C   0  0  0  0  0  0  0  0  0  0  0  0
    5.8660   10.0470   26.3250 C   0  0  0  0  0  0  0  0  0  0  0  0
    6.8660    9.9410   25.3650 C   0  0  0  0  0  0  0  0  0  0  0  0
  2  1  2  0
  3  2  1  0
  4  2  1  0
  5  4  1  6
  6  5  1  0
  7  6  1  0
  8  5  1  0
  9  8  1  0
  9  7  1  0
 10  9  1  0
 11 10  2  0
 12 10  1  0
 13 12  1  0
 14 13  2  0
 15 14  1  0
 16 15  1  0
 17 13  1  0
 18 17  2  0
 19 18  1  0
 20 19  2  0
 20 14  1  0
M  END
>  <id>  (1) 
207386

>  <inchikey>  (1) 
GQYBHVCKCWFZQQ-LLVKDONJSA-N

>  <alias>  (1) 
A3685a

>  <name>  (1) 
A3685a

>  <smiles>  (1) 
COc1ccccc1CC(=O)N1CC[C@@H](NC(N)=O)C1

>  <path>  (1) 
/opt/xchem-fragalysis-2/maxwin/2A_HIPPO/A71EV2A_P3only_20241211/aligned_files/A3685a/A3685a.pdb

>  <distance_score>  (1) 
None

>  <energy_score>  (1) 
None

>  <compound>  (1) 
GQYBHVCKCWFZQQ-UHFFFAOYSA-N

>  <compound_id>  (1) 
122465

>  <target>  (1) 
A71EV2A

$$$$
