A71EV2A-x3849_A_201_v1
     RDKit          3D

 20 21  0  0  0  0  0  0  0  0999 V2000
    9.6180   17.0130   19.4330 O   0  0  0  0  0  0  0  0  0  0  0  0
   10.1120   15.9900   19.9100 C   0  0  0  0  0  0  0  0  0  0  0  0
   10.6090   15.0150   19.1530 N   0  0  0  0  0  0  0  0  0  0  0  0
   10.1510   15.7730   21.4140 C   0  0  2  0  0  0  0  0  0  0  0  0
   11.5850   15.8200   21.9530 C   0  0  0  0  0  0  0  0  0  0  0  0
   11.5940   15.5260   23.4500 C   0  0  0  0  0  0  0  0  0  0  0  0
   10.9690   14.1650   23.7260 C   0  0  0  0  0  0  0  0  0  0  0  0
    9.4550   14.4480   21.7410 C   0  0  0  0  0  0  0  0  0  0  0  0
    9.6220   14.0240   23.1360 N   0  0  0  0  0  0  0  0  0  0  0  0
    8.6340   13.2810   23.6950 C   0  0  0  0  0  0  0  0  0  0  0  0
    7.6080   12.9770   23.0820 O   0  0  0  0  0  0  0  0  0  0  0  0
    8.9010   12.7350   25.0870 C   0  0  0  0  0  0  0  0  0  0  0  0
    7.9720   11.5940   25.4370 C   0  0  0  0  0  0  0  0  0  0  0  0
    8.0800   10.3060   24.8840 C   0  0  0  0  0  0  0  0  0  0  0  0
    9.0760   10.1640   23.9870 O   0  0  0  0  0  0  0  0  0  0  0  0
    9.4060    8.8420   23.5440 C   0  0  0  0  0  0  0  0  0  0  0  0
    6.9530   11.7730   26.3670 C   0  0  0  0  0  0  0  0  0  0  0  0
    6.1250   10.7210   26.7080 C   0  0  0  0  0  0  0  0  0  0  0  0
    6.3220    9.5090   26.0940 C   0  0  0  0  0  0  0  0  0  0  0  0
    7.2840    9.2870   25.1870 N   0  0  0  0  0  0  0  0  0  0  0  0
  2  1  2  0
  3  2  1  0
  4  2  1  6
  5  4  1  0
  6  5  1  0
  7  6  1  0
  8  4  1  0
  9  8  1  0
  9  7  1  0
 10  9  1  0
 11 10  2  0
 12 10  1  0
 13 12  1  0
 14 13  2  0
 15 14  1  0
 16 15  1  0
 17 13  1  0
 18 17  2  0
 19 18  1  0
 20 19  2  0
 20 14  1  0
M  END
>  <id>  (1) 
207388

>  <inchikey>  (1) 
DPQNQDXNIINHJH-LLVKDONJSA-N

>  <alias>  (1) 
A3849a

>  <name>  (1) 
A3849a

>  <smiles>  (1) 
COc1ncccc1CC(=O)N1CCC[C@@H](C(N)=O)C1

>  <path>  (1) 
/opt/xchem-fragalysis-2/maxwin/2A_HIPPO/A71EV2A_P3only_20241211/aligned_files/A3849a/A3849a.pdb

>  <distance_score>  (1) 
None

>  <energy_score>  (1) 
None

>  <compound>  (1) 
DPQNQDXNIINHJH-UHFFFAOYSA-N

>  <compound_id>  (1) 
122467

>  <target>  (1) 
A71EV2A

$$$$
