A71EV2A-x3858_A_201_v1
     RDKit          3D

 21 22  0  0  0  0  0  0  0  0999 V2000
    9.6960   17.0680   19.4350 O   0  0  0  0  0  0  0  0  0  0  0  0
   10.1230   16.0120   19.8790 C   0  0  0  0  0  0  0  0  0  0  0  0
   10.5370   15.0170   19.0760 N   0  0  0  0  0  0  0  0  0  0  0  0
   10.1750   15.7820   21.3800 C   0  0  2  0  0  0  0  0  0  0  0  0
   11.5990   15.7980   21.9280 C   0  0  0  0  0  0  0  0  0  0  0  0
   11.5750   15.5510   23.4330 C   0  0  0  0  0  0  0  0  0  0  0  0
   10.8030   14.2820   23.7720 C   0  0  0  0  0  0  0  0  0  0  0  0
    9.3780   14.5410   21.7240 C   0  0  0  0  0  0  0  0  0  0  0  0
    9.4610   14.2090   23.1500 N   0  0  0  0  0  0  0  0  0  0  0  0
    8.4000   13.5220   23.6370 C   0  0  0  0  0  0  0  0  0  0  0  0
    7.3960   13.2710   22.9610 O   0  0  0  0  0  0  0  0  0  0  0  0
    8.5820   12.9480   25.0220 C   0  0  0  0  0  0  0  0  0  0  0  0
    7.5130   11.9120   25.2790 C   0  0  0  0  0  0  0  0  0  0  0  0
    7.6930   10.6020   24.8080 C   0  0  0  0  0  0  0  0  0  0  0  0
    8.7570   10.4320   23.9490 O   0  0  0  0  0  0  0  0  0  0  0  0
    9.0720    9.0950   23.5060 C   0  0  0  0  0  0  0  0  0  0  0  0
    6.4040   12.1640   26.0940 C   0  0  0  0  0  0  0  0  0  0  0  0
    5.9930   13.7830   26.5770 Cl  0  0  0  0  0  0  0  0  0  0  0  0
    5.5650   11.1590   26.5120 C   0  0  0  0  0  0  0  0  0  0  0  0
    5.7950    9.8700   26.0800 C   0  0  0  0  0  0  0  0  0  0  0  0
    6.8550    9.5830   25.2200 C   0  0  0  0  0  0  0  0  0  0  0  0
  2  1  2  0
  3  2  1  0
  4  2  1  6
  5  4  1  0
  6  5  1  0
  7  6  1  0
  8  4  1  0
  9  8  1  0
  9  7  1  0
 10  9  1  0
 11 10  2  0
 12 10  1  0
 13 12  1  0
 14 13  2  0
 15 14  1  0
 16 15  1  0
 17 13  1  0
 18 17  1  0
 19 17  2  0
 20 19  1  0
 21 20  2  0
 21 14  1  0
M  END
>  <id>  (1) 
207389

>  <inchikey>  (1) 
NHPQEFHMDYOTOA-SNVBAGLBSA-N

>  <alias>  (1) 
A3858a

>  <name>  (1) 
A3858a

>  <smiles>  (1) 
COc1cccc(Cl)c1CC(=O)N1CCC[C@@H](C(N)=O)C1

>  <path>  (1) 
/opt/xchem-fragalysis-2/maxwin/2A_HIPPO/A71EV2A_P3only_20241211/aligned_files/A3858a/A3858a_hippo.pdb

>  <distance_score>  (1) 
None

>  <energy_score>  (1) 
None

>  <compound>  (1) 
NHPQEFHMDYOTOA-UHFFFAOYSA-N

>  <compound_id>  (1) 
122468

>  <target>  (1) 
A71EV2A

$$$$
