A71EV2A-x3883_A_201_v1
     RDKit          3D

 22 23  0  0  0  0  0  0  0  0999 V2000
    9.7400   16.7630   19.3780 O   0  0  0  0  0  0  0  0  0  0  0  0
   10.2080   15.6410   19.6130 C   0  0  0  0  0  0  0  0  0  0  0  0
   10.6910   14.8450   18.6720 N   0  0  0  0  0  0  0  0  0  0  0  0
   10.2570   15.0930   21.0280 C   0  0  1  0  0  0  0  0  0  0  0  0
   11.2870   15.8410   21.9090 C   0  0  0  0  0  0  0  0  0  0  0  0
   11.3400   15.2060   23.2950 C   0  0  0  0  0  0  0  0  0  0  0  0
    9.9630   15.2080   23.9420 C   0  0  0  0  0  0  0  0  0  0  0  0
    8.8890   15.1460   21.7010 C   0  0  0  0  0  0  0  0  0  0  0  0
    8.9610   14.5820   23.0570 N   0  0  0  0  0  0  0  0  0  0  0  0
    8.0780   13.6440   23.4670 C   0  0  0  0  0  0  0  0  0  0  0  0
    7.2060   13.2330   22.7310 O   0  0  0  0  0  0  0  0  0  0  0  0
    8.1020   13.2400   24.9560 C   0  0  1  0  0  0  0  0  0  0  0  0
    7.7880   14.3300   25.8310 O   0  0  0  0  0  0  0  0  0  0  0  0
    6.6840   15.1070   25.3930 C   0  0  0  0  0  0  0  0  0  0  0  0
    7.2440   12.0290   25.2690 C   0  0  0  0  0  0  0  0  0  0  0  0
    7.6030   10.7530   24.8380 C   0  0  0  0  0  0  0  0  0  0  0  0
    8.7060   10.6980   24.0220 O   0  0  0  0  0  0  0  0  0  0  0  0
    9.1600    9.3990   23.5890 C   0  0  0  0  0  0  0  0  0  0  0  0
    6.1490   12.1530   26.1200 C   0  0  0  0  0  0  0  0  0  0  0  0
    5.4320   11.0470   26.5390 C   0  0  0  0  0  0  0  0  0  0  0  0
    5.7880    9.7990   26.1020 C   0  0  0  0  0  0  0  0  0  0  0  0
    6.8760    9.6410   25.2520 C   0  0  0  0  0  0  0  0  0  0  0  0
  2  1  2  0
  3  2  1  0
  4  2  1  6
  5  4  1  0
  6  5  1  0
  7  6  1  0
  8  4  1  0
  9  8  1  0
  9  7  1  0
 10  9  1  0
 11 10  2  0
 12 10  1  0
 12 13  1  1
 14 13  1  0
 15 12  1  0
 16 15  2  0
 17 16  1  0
 18 17  1  0
 19 15  1  0
 20 19  2  0
 21 20  1  0
 22 21  2  0
 22 16  1  0
M  END
>  <id>  (1) 
207393

>  <inchikey>  (1) 
SGKREISFYQPEPI-FZMZJTMJSA-N

>  <alias>  (1) 
A3883a

>  <name>  (1) 
A3883a

>  <smiles>  (1) 
COc1ccccc1[C@H](OC)C(=O)N1CCC[C@H](C(N)=O)C1

>  <path>  (1) 
/opt/xchem-fragalysis-2/maxwin/2A_HIPPO/A71EV2A_P3only_20241211/aligned_files/A3883a/A3883a.pdb

>  <distance_score>  (1) 
None

>  <energy_score>  (1) 
None

>  <compound>  (1) 
SGKREISFYQPEPI-UHFFFAOYSA-N

>  <compound_id>  (1) 
122471

>  <target>  (1) 
A71EV2A

$$$$
