A71EV2A-x3884_A_201_v1
     RDKit          3D

 28 29  0  0  0  0  0  0  0  0999 V2000
    9.8060   16.8650   19.5740 O   0  0  0  0  0  0  0  0  0  0  0  0
   10.2680   15.7350   19.7640 C   0  0  0  0  0  0  0  0  0  0  0  0
   10.6290   14.9370   18.7740 N   0  0  0  0  0  0  0  0  0  0  0  0
   10.3740   15.1510   21.1620 C   0  0  1  0  0  0  0  0  0  0  0  0
   11.4430   15.8710   22.0060 C   0  0  0  0  0  0  0  0  0  0  0  0
   11.5390   15.2320   23.3940 C   0  0  0  0  0  0  0  0  0  0  0  0
   10.1800   15.2270   24.0660 C   0  0  0  0  0  0  0  0  0  0  0  0
    9.0190   15.1730   21.8700 C   0  0  0  0  0  0  0  0  0  0  0  0
    9.1380   14.6170   23.2210 N   0  0  0  0  0  0  0  0  0  0  0  0
    8.2550   13.6890   23.6440 C   0  0  0  0  0  0  0  0  0  0  0  0
    7.3550   13.3000   22.9210 O   0  0  0  0  0  0  0  0  0  0  0  0
    8.3390   13.2080   25.1420 C   0  0  1  0  0  0  0  0  0  0  0  0
    8.0710   14.2810   26.0960 N   0  0  0  0  0  0  0  0  0  0  0  0
    8.9720   14.6040   27.0430 C   0  0  0  0  0  0  0  0  0  0  0  0
    8.5070   15.6230   27.7630 O   0  0  0  0  0  0  0  0  0  0  0  0
    9.3400   16.2590   28.8150 C   0  0  1  0  0  0  0  0  0  0  0  0
    9.6990   15.3160   29.9520 C   0  0  0  0  0  0  0  0  0  0  0  0
   10.5760   16.8080   28.1300 C   0  0  0  0  0  0  0  0  0  0  0  0
    8.4520   17.3870   29.2870 C   0  0  0  0  0  0  0  0  0  0  0  0
   10.0210   14.0240   27.2390 O   0  0  0  0  0  0  0  0  0  0  0  0
    7.4420   12.0050   25.3730 C   0  0  0  0  0  0  0  0  0  0  0  0
    7.7720   10.7670   24.8220 C   0  0  0  0  0  0  0  0  0  0  0  0
    8.9060   10.7510   24.0480 O   0  0  0  0  0  0  0  0  0  0  0  0
    9.4380    9.4780   23.6590 C   0  0  0  0  0  0  0  0  0  0  0  0
    6.3200   12.0930   26.1910 C   0  0  0  0  0  0  0  0  0  0  0  0
    5.5430   10.9790   26.4380 C   0  0  0  0  0  0  0  0  0  0  0  0
    5.8730    9.7760   25.8850 C   0  0  0  0  0  0  0  0  0  0  0  0
    6.9920    9.6540   25.0700 C   0  0  0  0  0  0  0  0  0  0  0  0
  2  1  2  0
  3  2  1  0
  4  2  1  6
  5  4  1  0
  6  5  1  0
  7  6  1  0
  8  4  1  0
  9  8  1  0
  9  7  1  0
 10  9  1  0
 11 10  2  0
 12 10  1  0
 12 13  1  1
 14 13  1  0
 15 14  1  0
 16 15  1  0
 16 17  1  1
 18 16  1  0
 19 16  1  0
 20 14  2  0
 21 12  1  0
 22 21  2  0
 23 22  1  0
 24 23  1  0
 25 21  1  0
 26 25  2  0
 27 26  1  0
 28 27  2  0
 28 22  1  0
M  END
>  <id>  (1) 
207394

>  <inchikey>  (1) 
AGYHXRSAXIDCES-BBRMVZONSA-N

>  <alias>  (1) 
A3884a

>  <name>  (1) 
A3884a

>  <smiles>  (1) 
COc1ccccc1[C@H](NC(=O)OC(C)(C)C)C(=O)N1CCC[C@H](C(N)=O)C1

>  <path>  (1) 
/opt/xchem-fragalysis-2/maxwin/2A_HIPPO/A71EV2A_P3only_20241211/aligned_files/A3884a/A3884a_hippo.pdb

>  <distance_score>  (1) 
None

>  <energy_score>  (1) 
None

>  <compound>  (1) 
AGYHXRSAXIDCES-UHFFFAOYSA-N

>  <compound_id>  (1) 
122472

>  <target>  (1) 
A71EV2A

$$$$
