A71EV2A-x3895_A_201_v1
     RDKit          3D

 18 19  0  0  0  0  0  0  0  0999 V2000
   11.2160   15.5580   24.6370 O   0  0  0  0  0  0  0  0  0  0  0  0
   10.7320   15.3580   23.5300 C   0  0  0  0  0  0  0  0  0  0  0  0
   11.2680   15.8400   22.2090 C   0  0  0  0  0  0  0  0  0  0  0  0
   10.5560   14.9280   21.2130 C   0  0  2  0  0  0  0  0  0  0  0  0
   10.4080   15.4960   19.8090 C   0  0  0  0  0  0  0  0  0  0  0  0
    9.9550   16.6330   19.6210 O   0  0  0  0  0  0  0  0  0  0  0  0
   10.7240   14.6670   18.8180 N   0  0  0  0  0  0  0  0  0  0  0  0
    9.1970   14.6940   21.8810 C   0  0  0  0  0  0  0  0  0  0  0  0
    9.5530   14.7430   23.3030 N   0  0  0  0  0  0  0  0  0  0  0  0
    8.6250   14.2600   24.3320 C   0  0  0  0  0  0  0  0  0  0  0  0
    8.5230   12.7520   24.3960 C   0  0  0  0  0  0  0  0  0  0  0  0
    7.5270   12.1700   25.1820 C   0  0  0  0  0  0  0  0  0  0  0  0
    6.7240   13.0600   25.8520 O   0  0  0  0  0  0  0  0  0  0  0  0
    5.6310   12.5270   26.6200 C   0  0  0  0  0  0  0  0  0  0  0  0
    9.3950   11.9080   23.7020 C   0  0  0  0  0  0  0  0  0  0  0  0
    9.2660   10.5300   23.7910 C   0  0  0  0  0  0  0  0  0  0  0  0
    8.2770    9.9770   24.5740 C   0  0  0  0  0  0  0  0  0  0  0  0
    7.4030   10.7910   25.2750 C   0  0  0  0  0  0  0  0  0  0  0  0
  2  1  2  0
  3  2  1  0
  4  3  1  0
  4  5  1  6
  6  5  2  0
  7  5  1  0
  8  4  1  0
  9  8  1  0
  9  2  1  0
 10  9  1  0
 11 10  1  0
 12 11  2  0
 13 12  1  0
 14 13  1  0
 15 11  1  0
 16 15  2  0
 17 16  1  0
 18 17  2  0
 18 12  1  0
M  END
>  <id>  (1) 
207396

>  <inchikey>  (1) 
OROYSOLBVZCRAY-JTQLQIEISA-N

>  <alias>  (1) 
A3895a

>  <name>  (1) 
A3895a

>  <smiles>  (1) 
COc1ccccc1CN1C[C@@H](C(N)=O)CC1=O

>  <path>  (1) 
/opt/xchem-fragalysis-2/maxwin/2A_HIPPO/A71EV2A_P3only_20241211/aligned_files/A3895a/A3895a.pdb

>  <distance_score>  (1) 
None

>  <energy_score>  (1) 
None

>  <compound>  (1) 
OROYSOLBVZCRAY-UHFFFAOYSA-N

>  <compound_id>  (1) 
122474

>  <target>  (1) 
A71EV2A

$$$$
