A71EV2A-x3901_A_201_v1
     RDKit          3D

 20 21  0  0  0  0  0  0  0  0999 V2000
    9.8380   16.7400   19.2630 O   0  0  0  0  0  0  0  0  0  0  0  0
   10.2410   15.5990   19.5110 C   0  0  0  0  0  0  0  0  0  0  0  0
   10.6850   14.7640   18.5900 N   0  0  0  0  0  0  0  0  0  0  0  0
   10.2550   15.0910   20.9480 C   0  0  1  0  0  0  0  0  0  0  0  0
   11.2080   15.8300   21.8060 N   0  0  0  0  0  0  0  0  0  0  0  0
   11.2840   15.2200   23.1380 C   0  0  0  0  0  0  0  0  0  0  0  0
    9.9200   15.1930   23.8030 C   0  0  0  0  0  0  0  0  0  0  0  0
    8.8610   15.0810   21.5620 C   0  0  0  0  0  0  0  0  0  0  0  0
    8.9410   14.5350   22.9200 N   0  0  0  0  0  0  0  0  0  0  0  0
    8.1240   13.5380   23.3150 C   0  0  0  0  0  0  0  0  0  0  0  0
    7.1840   13.1760   22.6400 O   0  0  0  0  0  0  0  0  0  0  0  0
    8.3710   12.9860   24.7080 C   0  0  0  0  0  0  0  0  0  0  0  0
    7.3840   11.9140   25.1040 C   0  0  0  0  0  0  0  0  0  0  0  0
    7.6200   10.5990   24.7160 C   0  0  0  0  0  0  0  0  0  0  0  0
    8.6630   10.4470   23.8370 O   0  0  0  0  0  0  0  0  0  0  0  0
    9.0870    9.1200   23.5120 C   0  0  0  0  0  0  0  0  0  0  0  0
    6.3410   12.1680   25.9920 C   0  0  0  0  0  0  0  0  0  0  0  0
    5.5730   11.1360   26.5050 C   0  0  0  0  0  0  0  0  0  0  0  0
    5.8240    9.8410   26.1230 C   0  0  0  0  0  0  0  0  0  0  0  0
    6.8400    9.5640   25.2160 C   0  0  0  0  0  0  0  0  0  0  0  0
  2  1  2  0
  3  2  1  0
  4  2  1  6
  5  4  1  0
  6  5  1  0
  7  6  1  0
  8  4  1  0
  9  8  1  0
  9  7  1  0
 10  9  1  0
 11 10  2  0
 12 10  1  0
 13 12  1  0
 14 13  2  0
 15 14  1  0
 16 15  1  0
 17 13  1  0
 18 17  2  0
 19 18  1  0
 20 19  2  0
 20 14  1  0
M  END
>  <id>  (1) 
207397

>  <inchikey>  (1) 
DRNIUJKTSBJJIK-NSHDSACASA-N

>  <alias>  (1) 
A3901a

>  <name>  (1) 
A3901a

>  <smiles>  (1) 
COc1ccccc1CC(=O)N1CCN[C@H](C(N)=O)C1

>  <path>  (1) 
/opt/xchem-fragalysis-2/maxwin/2A_HIPPO/A71EV2A_P3only_20241211/aligned_files/A3901a/A3901a.pdb

>  <distance_score>  (1) 
None

>  <energy_score>  (1) 
None

>  <compound>  (1) 
DRNIUJKTSBJJIK-UHFFFAOYSA-N

>  <compound_id>  (1) 
122475

>  <target>  (1) 
A71EV2A

$$$$
