A71EV2A-x3977_A_202_v1
     RDKit          3D

 18 18  0  0  0  0  0  0  0  0999 V2000
   17.4400   -0.2190   20.0310 O   0  0  0  0  0  0  0  0  0  0  0  0
   18.6350    0.0880   19.9470 C   0  0  0  0  0  0  0  0  0  0  0  0
   19.0530    1.2850   19.5370 N   0  0  0  0  0  0  0  0  0  0  0  0
   19.7160   -0.9000   20.3230 C   0  0  0  0  0  0  0  0  0  0  0  0
   19.2430   -2.3450   20.1980 C   0  0  0  0  0  0  0  0  0  0  0  0
   19.2250   -2.8240   18.8140 N   0  0  0  0  0  0  0  0  0  0  0  0
   20.5190   -2.8880   18.1420 C   0  0  0  0  0  0  0  0  0  0  0  0
   18.1030   -3.2280   18.1770 C   0  0  0  0  0  0  0  0  0  0  0  0
   18.1330   -3.6240   17.0190 O   0  0  0  0  0  0  0  0  0  0  0  0
   16.8070   -3.2710   18.9660 C   0  0  0  0  0  0  0  0  0  0  0  0
   15.8410   -4.2820   18.3900 C   0  0  0  0  0  0  0  0  0  0  0  0
   16.1580   -5.6430   18.3840 C   0  0  0  0  0  0  0  0  0  0  0  0
   17.3970   -5.9440   18.8790 O   0  0  0  0  0  0  0  0  0  0  0  0
   17.7170   -7.3140   19.0990 C   0  0  0  0  0  0  0  0  0  0  0  0
   14.6000   -3.8900   17.8870 C   0  0  0  0  0  0  0  0  0  0  0  0
   13.6940   -4.8340   17.4310 C   0  0  0  0  0  0  0  0  0  0  0  0
   14.0200   -6.1740   17.4410 C   0  0  0  0  0  0  0  0  0  0  0  0
   15.2570   -6.5840   17.9050 C   0  0  0  0  0  0  0  0  0  0  0  0
  2  1  2  0
  3  2  1  0
  4  2  1  0
  5  4  1  0
  6  5  1  0
  7  6  1  0
  8  6  1  0
  9  8  2  0
 10  8  1  0
 11 10  1  0
 12 11  2  0
 13 12  1  0
 14 13  1  0
 15 11  1  0
 16 15  2  0
 17 16  1  0
 18 17  2  0
 18 12  1  0
M  END
>  <id>  (1) 
207403

>  <inchikey>  (1) 
HYRNBUDTYVNBBW-UHFFFAOYSA-N

>  <alias>  (1) 
A3977b

>  <name>  (1) 
A3977b

>  <smiles>  (1) 
COc1ccccc1CC(=O)N(C)CCC(N)=O

>  <path>  (1) 
/opt/xchem-fragalysis-2/maxwin/2A_HIPPO/A71EV2A_P3only_20241211/aligned_files/A3977b/A3977b.pdb

>  <distance_score>  (1) 
None

>  <energy_score>  (1) 
None

>  <compound>  (1) 
HYRNBUDTYVNBBW-UHFFFAOYSA-N

>  <compound_id>  (1) 
122479

>  <target>  (1) 
A71EV2A

$$$$
