A71EV2A-x3977_A_201_v1
     RDKit          3D

 18 18  0  0  0  0  0  0  0  0999 V2000
    9.7630   16.6950   19.4540 O   0  0  0  0  0  0  0  0  0  0  0  0
   10.3200   15.6060   19.6490 C   0  0  0  0  0  0  0  0  0  0  0  0
   10.7080   14.8040   18.6690 N   0  0  0  0  0  0  0  0  0  0  0  0
   10.6100   15.1260   21.0480 C   0  0  0  0  0  0  0  0  0  0  0  0
    9.3710   15.1940   21.9260 C   0  0  0  0  0  0  0  0  0  0  0  0
    9.5460   14.5190   23.2140 N   0  0  0  0  0  0  0  0  0  0  0  0
   10.6870   14.9630   24.0140 C   0  0  0  0  0  0  0  0  0  0  0  0
    8.6950   13.5380   23.5970 C   0  0  0  0  0  0  0  0  0  0  0  0
    7.7190   13.2250   22.9150 O   0  0  0  0  0  0  0  0  0  0  0  0
    8.9500   12.8860   24.9440 C   0  0  0  0  0  0  0  0  0  0  0  0
    7.8840   11.8740   25.3030 C   0  0  0  0  0  0  0  0  0  0  0  0
    7.9780   10.5660   24.8250 C   0  0  0  0  0  0  0  0  0  0  0  0
    8.9590   10.3670   23.8880 O   0  0  0  0  0  0  0  0  0  0  0  0
    9.2930    9.0160   23.5340 C   0  0  0  0  0  0  0  0  0  0  0  0
    6.8660   12.1800   26.2030 C   0  0  0  0  0  0  0  0  0  0  0  0
    5.9960   11.1990   26.6510 C   0  0  0  0  0  0  0  0  0  0  0  0
    6.1310    9.9050   26.2100 C   0  0  0  0  0  0  0  0  0  0  0  0
    7.1140    9.5780   25.2840 C   0  0  0  0  0  0  0  0  0  0  0  0
  2  1  2  0
  3  2  1  0
  4  2  1  0
  5  4  1  0
  6  5  1  0
  7  6  1  0
  8  6  1  0
  9  8  2  0
 10  8  1  0
 11 10  1  0
 12 11  2  0
 13 12  1  0
 14 13  1  0
 15 11  1  0
 16 15  2  0
 17 16  1  0
 18 17  2  0
 18 12  1  0
M  END
>  <id>  (1) 
207402

>  <inchikey>  (1) 
HYRNBUDTYVNBBW-UHFFFAOYSA-N

>  <alias>  (1) 
A3977a

>  <name>  (1) 
A3977a

>  <smiles>  (1) 
COc1ccccc1CC(=O)N(C)CCC(N)=O

>  <path>  (1) 
/opt/xchem-fragalysis-2/maxwin/2A_HIPPO/A71EV2A_P3only_20241211/aligned_files/A3977a/A3977a.pdb

>  <distance_score>  (1) 
None

>  <energy_score>  (1) 
None

>  <compound>  (1) 
HYRNBUDTYVNBBW-UHFFFAOYSA-N

>  <compound_id>  (1) 
122479

>  <target>  (1) 
A71EV2A

$$$$
