A71EV2A-x4283_A_201_v1
     RDKit          3D

 20 21  0  0  0  0  0  0  0  0999 V2000
    9.7260   16.8420   19.5300 O   0  0  0  0  0  0  0  0  0  0  0  0
   10.1740   15.7170   19.7480 C   0  0  0  0  0  0  0  0  0  0  0  0
   10.6040   14.9170   18.7810 N   0  0  0  0  0  0  0  0  0  0  0  0
   10.2320   15.1520   21.1580 C   0  0  1  0  0  0  0  0  0  0  0  0
   11.3190   15.8430   22.0040 C   0  0  0  0  0  0  0  0  0  0  0  0
   11.3570   15.2530   23.4180 C   0  0  0  0  0  0  0  0  0  0  0  0
    9.9810   15.3270   24.0700 C   0  0  0  0  0  0  0  0  0  0  0  0
    8.8780   15.2880   21.8690 C   0  0  0  0  0  0  0  0  0  0  0  0
    8.9610   14.7060   23.2100 N   0  0  0  0  0  0  0  0  0  0  0  0
    8.1790   13.6540   23.5510 C   0  0  0  0  0  0  0  0  0  0  0  0
    7.3250   13.2120   22.8020 O   0  0  0  0  0  0  0  0  0  0  0  0
    8.4340   13.0380   24.9120 C   0  0  0  0  0  0  0  0  0  0  0  0
    7.5000   11.9120   25.2390 C   0  0  0  0  0  0  0  0  0  0  0  0
    7.7490   10.6140   24.7820 C   0  0  0  0  0  0  0  0  0  0  0  0
    8.8260   10.4830   23.9430 O   0  0  0  0  0  0  0  0  0  0  0  0
    9.1650    9.1710   23.4780 C   0  0  0  0  0  0  0  0  0  0  0  0
    6.4700   12.2060   26.0500 N   0  0  0  0  0  0  0  0  0  0  0  0
    5.6730   11.1960   26.4420 C   0  0  0  0  0  0  0  0  0  0  0  0
    5.8490    9.8870   26.0380 C   0  0  0  0  0  0  0  0  0  0  0  0
    6.9110    9.5850   25.1940 C   0  0  0  0  0  0  0  0  0  0  0  0
  2  1  2  0
  3  2  1  0
  4  2  1  6
  5  4  1  0
  6  5  1  0
  7  6  1  0
  8  4  1  0
  9  8  1  0
  9  7  1  0
 10  9  1  0
 11 10  2  0
 12 10  1  0
 13 12  1  0
 14 13  2  0
 15 14  1  0
 16 15  1  0
 17 13  1  0
 18 17  2  0
 19 18  1  0
 20 19  2  0
 20 14  1  0
M  END
>  <id>  (1) 
207414

>  <inchikey>  (1) 
VJNDTMIDSGNFJC-JTQLQIEISA-N

>  <alias>  (1) 
A4283a

>  <name>  (1) 
A4283a

>  <smiles>  (1) 
COc1cccnc1CC(=O)N1CCC[C@H](C(N)=O)C1

>  <path>  (1) 
/opt/xchem-fragalysis-2/maxwin/2A_HIPPO/A71EV2A_P3only_20241211/aligned_files/A4283a/A4283a_hippo.pdb

>  <distance_score>  (1) 
None

>  <energy_score>  (1) 
None

>  <compound>  (1) 
VJNDTMIDSGNFJC-UHFFFAOYSA-N

>  <compound_id>  (1) 
122489

>  <target>  (1) 
A71EV2A

$$$$
