A71EV2A-x4290_A_201_v1
     RDKit          3D

 21 22  0  0  0  0  0  0  0  0999 V2000
    9.8110   17.0580   19.5230 O   0  0  0  0  0  0  0  0  0  0  0  0
   10.2100   15.9110   19.7470 C   0  0  0  0  0  0  0  0  0  0  0  0
   10.5340   15.0540   18.7940 N   0  0  0  0  0  0  0  0  0  0  0  0
   10.3540   15.3970   21.1670 C   0  0  1  0  0  0  0  0  0  0  0  0
   11.5490   16.0470   21.8880 C   0  0  0  0  0  0  0  0  0  0  0  0
   11.6870   15.5450   23.3290 C   0  0  0  0  0  0  0  0  0  0  0  0
   10.3740   15.6810   24.0800 C   0  0  0  0  0  0  0  0  0  0  0  0
    9.1020   15.6830   21.9900 C   0  0  0  0  0  0  0  0  0  0  0  0
    9.2930   15.0630   23.3000 N   0  0  0  0  0  0  0  0  0  0  0  0
    8.6580   13.9160   23.6030 C   0  0  0  0  0  0  0  0  0  0  0  0
    7.7170   13.4960   22.9460 O   0  0  0  0  0  0  0  0  0  0  0  0
    9.2100   13.1350   24.7760 C   0  0  0  0  0  0  0  0  0  0  0  0
    8.3620   11.9110   25.0120 C   0  0  0  0  0  0  0  0  0  0  0  0
    7.1730   11.9690   25.7550 C   0  0  0  0  0  0  0  0  0  0  0  0
    6.5700   13.5820   26.3880 S   0  0  0  0  0  0  0  0  0  0  0  0
    5.2300   13.9810   25.2620 C   0  0  0  0  0  0  0  0  0  0  0  0
    8.7470   10.6910   24.4580 C   0  0  0  0  0  0  0  0  0  0  0  0
    8.0010    9.5490   24.6660 C   0  0  0  0  0  0  0  0  0  0  0  0
    6.8560    9.6010   25.4370 C   0  0  0  0  0  0  0  0  0  0  0  0
    6.4440   10.8120   25.9640 C   0  0  0  0  0  0  0  0  0  0  0  0
    4.8190   10.8110   26.9290 Br  0  0  0  0  0  0  0  0  0  0  0  0
  2  1  2  0
  3  2  1  0
  4  2  1  6
  5  4  1  0
  6  5  1  0
  7  6  1  0
  8  4  1  0
  9  8  1  0
  9  7  1  0
 10  9  1  0
 11 10  2  0
 12 10  1  0
 13 12  1  0
 14 13  2  0
 15 14  1  0
 16 15  1  0
 17 13  1  0
 18 17  2  0
 19 18  1  0
 20 19  2  0
 20 14  1  0
 21 20  1  0
M  END
>  <id>  (1) 
207415

>  <inchikey>  (1) 
IQRUJMCPLXCOCF-NSHDSACASA-N

>  <alias>  (1) 
A4290a

>  <name>  (1) 
A4290a

>  <smiles>  (1) 
CSc1c(Br)cccc1CC(=O)N1CCC[C@H](C(N)=O)C1

>  <path>  (1) 
/opt/xchem-fragalysis-2/maxwin/2A_HIPPO/A71EV2A_P3only_20241211/aligned_files/A4290a/A4290a.pdb

>  <distance_score>  (1) 
None

>  <energy_score>  (1) 
None

>  <compound>  (1) 
IQRUJMCPLXCOCF-UHFFFAOYSA-N

>  <compound_id>  (1) 
122490

>  <target>  (1) 
A71EV2A

$$$$
