A71EV2A-x4317_A_201_v1
     RDKit          3D

 21 23  0  0  0  0  0  0  0  0999 V2000
    9.8890   16.7130   19.5970 O   0  0  0  0  0  0  0  0  0  0  0  0
   10.3960   15.5980   19.7720 C   0  0  0  0  0  0  0  0  0  0  0  0
   10.7770   14.8210   18.7640 N   0  0  0  0  0  0  0  0  0  0  0  0
   10.5410   15.0040   21.1650 C   0  0  2  0  0  0  0  0  0  0  0  0
    9.1890   14.6990   21.8120 C   0  0  0  0  0  0  0  0  0  0  0  0
   11.2370   15.8810   22.2210 C   0  0  0  0  0  0  0  0  0  0  0  0
   10.8350   15.1490   23.5250 C   0  0  2  0  0  0  0  0  0  0  0  0
   11.1310   15.7430   24.8650 C   0  0  0  0  0  0  0  0  0  0  0  0
   11.8240   14.4790   24.4240 C   0  0  0  0  0  0  0  0  0  0  0  0
    9.5290   14.5300   23.2340 N   0  0  0  0  0  0  0  0  0  0  0  0
    8.7260   13.9740   24.1770 C   0  0  0  0  0  0  0  0  0  0  0  0
    9.0240   13.9140   25.3600 O   0  0  0  0  0  0  0  0  0  0  0  0
    7.4020   13.4110   23.7000 C   0  0  0  0  0  0  0  0  0  0  0  0
    6.9220   12.3200   24.6300 C   0  0  0  0  0  0  0  0  0  0  0  0
    7.3890   11.0160   24.4780 C   0  0  0  0  0  0  0  0  0  0  0  0
    8.3830   10.8660   23.5490 O   0  0  0  0  0  0  0  0  0  0  0  0
    8.9720    9.5650   23.4010 C   0  0  0  0  0  0  0  0  0  0  0  0
    5.9530   12.5620   25.5980 C   0  0  0  0  0  0  0  0  0  0  0  0
    5.4300   11.5270   26.3620 C   0  0  0  0  0  0  0  0  0  0  0  0
    5.8760   10.2370   26.1730 C   0  0  0  0  0  0  0  0  0  0  0  0
    6.8490    9.9720   25.2210 C   0  0  0  0  0  0  0  0  0  0  0  0
  2  1  2  0
  3  2  1  0
  4  2  1  6
  5  4  1  0
  6  4  1  0
  7  6  1  6
  8  7  1  0
  9  7  1  0
  9  8  1  0
 10  7  1  0
 10  5  1  0
 11 10  1  0
 12 11  2  0
 13 11  1  0
 14 13  1  0
 15 14  2  0
 16 15  1  0
 17 16  1  0
 18 14  1  0
 19 18  2  0
 20 19  1  0
 21 20  2  0
 21 15  1  0
M  END
>  <id>  (1) 
207420

>  <inchikey>  (1) 
APDQHJBCMAYJOC-LBPRGKRZSA-N

>  <alias>  (1) 
A4317a

>  <name>  (1) 
A4317a

>  <smiles>  (1) 
COc1ccccc1CC(=O)N1C[C@@H](C(N)=O)CC12CC2

>  <path>  (1) 
/opt/xchem-fragalysis-2/maxwin/2A_HIPPO/A71EV2A_P3only_20241211/aligned_files/A4317a/A4317a.pdb

>  <distance_score>  (1) 
None

>  <energy_score>  (1) 
None

>  <compound>  (1) 
APDQHJBCMAYJOC-UHFFFAOYSA-N

>  <compound_id>  (1) 
122495

>  <target>  (1) 
A71EV2A

$$$$
