282
     RDKit          3D

 23 25  0  0  0  0  0  0  0  0999 V2000
    9.2847    8.8803   23.4562 C   0  0  0  0  0  0  0  0  0  0  0  0
    9.2411   10.6543   23.7922 S   0  0  0  0  0  0  0  0  0  0  0  0
    7.8915   10.8578   24.9247 C   0  0  0  0  0  0  0  0  0  0  0  0
    7.1494    9.8088   25.4718 C   0  0  0  0  0  0  0  0  0  0  0  0
    6.0833   10.0399   26.3592 C   0  0  0  0  0  0  0  0  0  0  0  0
    5.7462   11.3377   26.7316 C   0  0  0  0  0  0  0  0  0  0  0  0
    4.3173   11.6155   27.9328 Br  0  0  0  0  0  0  0  0  0  0  0  0
    6.4832   12.3855   26.2112 C   0  0  0  0  0  0  0  0  0  0  0  0
    7.5391   12.1465   25.3110 C   0  0  0  0  0  0  0  0  0  0  0  0
    8.1367   13.4511   24.8262 C   0  0  1  0  0  0  0  0  0  0  0  0
    7.6470   13.8881   23.4341 C   0  0  0  0  0  0  0  0  0  0  0  0
    6.6605   13.3985   22.9495 O   0  0  0  0  0  0  0  0  0  0  0  0
    8.4812   14.9546   22.9677 N   0  0  0  0  0  0  0  0  0  0  0  0
    8.3308   15.8618   21.8032 C   0  0  0  0  0  0  0  0  0  0  0  0
    9.2736   17.0611   21.7633 C   0  0  0  0  0  0  0  0  0  0  0  0
   10.6770   16.6526   22.1618 C   0  0  0  0  0  0  0  0  0  0  0  0
   10.8644   15.2402   21.6591 C   0  0  2  0  0  0  0  0  0  0  0  0
   10.9979   15.2645   20.1057 C   0  0  0  0  0  0  0  0  0  0  0  0
   12.3560   15.4361   19.6755 N   0  0  0  0  0  0  0  0  0  0  0  0
    9.9860   15.1868   19.4740 O   0  0  0  0  0  0  0  0  0  0  0  0
    9.6313   14.3886   22.0961 C   0  0  0  0  0  0  0  0  0  0  0  0
    7.6094   14.4262   25.8985 C   0  0  0  0  0  0  0  0  0  0  0  0
    6.2742   13.8560   26.3945 C   0  0  0  0  0  0  0  0  0  0  0  0
  1  2  1  0
  2  3  1  0
  3  4  2  0
  4  5  1  0
  5  6  2  0
  6  7  1  0
  6  8  1  0
  8  9  2  0
  9 10  1  0
 10 11  1  6
 11 12  2  0
 11 13  1  0
 13 14  1  0
 14 15  1  0
 15 16  1  0
 16 17  1  0
 17 18  1  6
 18 19  1  0
 18 20  2  0
 17 21  1  0
 10 22  1  0
 22 23  1  0
  9  3  1  0
 21 13  1  0
 23  8  1  0
M  END
>  <inchikey>  (1) 
JREOHHWVADEAFW-JQWIXIFHSA-N

>  <alias>  (1) 
None

>  <name>  (1) 
JREOHHWVADEAFW-JQWIXIFHSA-N

>  <smiles>  (1) 
CSc1ccc(Br)c2c1[C@@H](C(=O)N1CCC[C@H](C(N)=O)C1)CC2

>  <path>  (1) 
/opt/xchem-fragalysis-2/maxwin/BulkDock/SCRATCH/239536/C239-P251/C239-P251.minimised.mol

>  <distance_score>  (1) 
2.230381

>  <energy_score>  (1) 
130.891339

>  <compound>  (1) 
JREOHHWVADEAFW-UHFFFAOYSA-N

>  <compound_id>  (1) 
239

>  <target>  (1) 
A71EV2A

>  <tags>  (1) 
['Fragmenstein placed']

>  <inspirations>  (1) 
A4386a,A4202a

>  <reference>  (1) 
A4386a

>  <SLURM_JOB_ID>  (1) 
239536

>  <SLURM_JOB_NAME>  (1) 
BulkDock.place:A71EV2A:2A_daren_manual_split1000_batch000

>  <csv_name>  (1) 
2A_daren_manual_split1000_batch000.csv

>  <scratch_subdir>  (1) 
/opt/xchem-fragalysis-2/maxwin/BulkDock/SCRATCH/239536/C239-P251

>  <fragmenstein_runtime>  (1) 
22.652975

>  <fragmenstein_outcome>  (1) 
too moved

>  <fragmenstein_mode>  (1) 
expansion

>  <fragmenstein_error>  (1) 


$$$$
285
     RDKit          3D

 23 25  0  0  0  0  0  0  0  0999 V2000
    9.2355    8.8811   23.5138 C   0  0  0  0  0  0  0  0  0  0  0  0
    9.2584   10.6257   23.9901 S   0  0  0  0  0  0  0  0  0  0  0  0
    7.7524   10.8321   24.9111 C   0  0  0  0  0  0  0  0  0  0  0  0
    6.9684    9.7780   25.3895 C   0  0  0  0  0  0  0  0  0  0  0  0
    5.8129   10.0024   26.1601 C   0  0  0  0  0  0  0  0  0  0  0  0
    5.4285   11.2979   26.4904 C   0  0  0  0  0  0  0  0  0  0  0  0
    3.9188   11.5688   27.5898 Br  0  0  0  0  0  0  0  0  0  0  0  0
    6.1896   12.3508   26.0172 C   0  0  0  0  0  0  0  0  0  0  0  0
    7.3277   12.1196   25.2194 C   0  0  0  0  0  0  0  0  0  0  0  0
    7.9178   13.4310   24.7455 C   0  0  1  0  0  0  0  0  0  0  0  0
    7.4661   13.8310   23.3271 C   0  0  0  0  0  0  0  0  0  0  0  0
    6.5053   13.3093   22.8227 O   0  0  0  0  0  0  0  0  0  0  0  0
    8.2921   14.9058   22.8632 N   0  0  0  0  0  0  0  0  0  0  0  0
    8.1590   15.7884   21.6694 C   0  0  0  0  0  0  0  0  0  0  0  0
    9.0982   16.9968   21.6091 C   0  0  0  0  0  0  0  0  0  0  0  0
   10.4749   16.6218   22.1189 C   0  0  0  0  0  0  0  0  0  0  0  0
   10.7105   15.2060   21.6526 C   0  0  2  0  0  0  0  0  0  0  0  0
   10.9091   15.1947   20.1055 C   0  0  0  0  0  0  0  0  0  0  0  0
   12.2779   15.3905   19.7374 N   0  0  0  0  0  0  0  0  0  0  0  0
    9.9332   15.0671   19.4290 O   0  0  0  0  0  0  0  0  0  0  0  0
    9.4751   14.3482   22.0445 C   0  0  0  0  0  0  0  0  0  0  0  0
    7.3095   14.4038   25.7756 C   0  0  0  0  0  0  0  0  0  0  0  0
    5.9472   13.8198   26.1742 C   0  0  0  0  0  0  0  0  0  0  0  0
  1  2  1  0
  2  3  1  0
  3  4  2  0
  4  5  1  0
  5  6  2  0
  6  7  1  0
  6  8  1  0
  8  9  2  0
  9 10  1  0
 10 11  1  6
 11 12  2  0
 11 13  1  0
 13 14  1  0
 14 15  1  0
 15 16  1  0
 16 17  1  0
 17 18  1  6
 18 19  1  0
 18 20  2  0
 17 21  1  0
 10 22  1  0
 22 23  1  0
  9  3  1  0
 21 13  1  0
 23  8  1  0
M  END
>  <inchikey>  (2) 
JREOHHWVADEAFW-JQWIXIFHSA-N

>  <alias>  (2) 
None

>  <name>  (2) 
JREOHHWVADEAFW-JQWIXIFHSA-N

>  <smiles>  (2) 
CSc1ccc(Br)c2c1[C@@H](C(=O)N1CCC[C@H](C(N)=O)C1)CC2

>  <path>  (2) 
/opt/xchem-fragalysis-2/maxwin/BulkDock/SCRATCH/239536/C239-P258/C239-P258.minimised.mol

>  <distance_score>  (2) 
2.217101

>  <energy_score>  (2) 
131.009373

>  <compound>  (2) 
JREOHHWVADEAFW-UHFFFAOYSA-N

>  <compound_id>  (2) 
239

>  <target>  (2) 
A71EV2A

>  <tags>  (2) 
['Fragmenstein placed']

>  <inspirations>  (2) 
A4386a,A4202a

>  <reference>  (2) 
A4202a

>  <SLURM_JOB_ID>  (2) 
239536

>  <SLURM_JOB_NAME>  (2) 
BulkDock.place:A71EV2A:2A_daren_manual_split1000_batch000

>  <csv_name>  (2) 
2A_daren_manual_split1000_batch000.csv

>  <scratch_subdir>  (2) 
/opt/xchem-fragalysis-2/maxwin/BulkDock/SCRATCH/239536/C239-P258

>  <fragmenstein_runtime>  (2) 
10.354526

>  <fragmenstein_outcome>  (2) 
too moved

>  <fragmenstein_mode>  (2) 
expansion

>  <fragmenstein_error>  (2) 


$$$$
288
     RDKit          3D

 22 24  0  0  0  0  0  0  0  0999 V2000
   10.8170   14.6560   19.1779 N   0  0  0  0  0  0  0  0  0  0  0  0
   10.3936   15.7812   19.9655 C   0  0  0  0  0  0  0  0  0  0  0  0
   10.1780   16.9157   19.6513 O   0  0  0  0  0  0  0  0  0  0  0  0
   10.2773   15.3916   21.4480 C   0  0  1  0  0  0  0  0  0  0  0  0
   11.0155   16.4067   22.3081 C   0  0  0  0  0  0  0  0  0  0  0  0
   10.4758   16.2768   23.7094 C   0  0  0  0  0  0  0  0  0  0  0  0
    8.9523   16.1905   23.6229 C   0  0  0  0  0  0  0  0  0  0  0  0
    8.5112   14.7986   23.2424 N   0  0  0  0  0  0  0  0  0  0  0  0
    7.2779   14.4808   23.8888 C   0  0  0  0  0  0  0  0  0  0  0  0
    6.1432   14.6341   23.5253 O   0  0  0  0  0  0  0  0  0  0  0  0
    7.6002   13.9589   25.2913 C   0  0  0  0  0  0  0  0  0  0  0  0
    7.2270   12.5209   25.5163 C   0  0  0  0  0  0  0  0  0  0  0  0
    6.1857   12.2146   26.4072 C   0  0  0  0  0  0  0  0  0  0  0  0
    5.8325   10.8887   26.6471 C   0  0  0  0  0  0  0  0  0  0  0  0
    4.5048   10.4911   27.9330 Br  0  0  0  0  0  0  0  0  0  0  0  0
    6.4840    9.8515   25.9845 C   0  0  0  0  0  0  0  0  0  0  0  0
    7.5390   10.1416   25.1249 C   0  0  0  0  0  0  0  0  0  0  0  0
    7.9038   11.4676   24.8964 C   0  0  0  0  0  0  0  0  0  0  0  0
    9.2793   11.5740   23.7898 S   0  0  0  0  0  0  0  0  0  0  0  0
    9.5672    9.7843   23.7844 C   0  0  0  0  0  0  0  0  0  0  0  0
    8.3169    9.1293   24.3383 C   0  0  0  0  0  0  0  0  0  0  0  0
    8.7911   15.3257   21.8470 C   0  0  0  0  0  0  0  0  0  0  0  0
  1  2  1  0
  2  3  2  0
  4  2  1  6
  4  5  1  0
  5  6  1  0
  6  7  1  0
  7  8  1  0
  8  9  1  0
  9 10  2  0
  9 11  1  0
 11 12  1  0
 12 13  2  0
 13 14  1  0
 14 15  1  0
 14 16  2  0
 16 17  1  0
 17 18  2  0
 18 19  1  0
 19 20  1  0
 20 21  1  0
  8 22  1  0
 22  4  1  0
 18 12  1  0
 21 17  1  0
M  END
>  <inchikey>  (3) 
ZBYPJQSKLGOFPL-NSHDSACASA-N

>  <alias>  (3) 
None

>  <name>  (3) 
ZBYPJQSKLGOFPL-NSHDSACASA-N

>  <smiles>  (3) 
NC(=O)[C@H]1CCCN(C(=O)Cc2cc(Br)cc3c2SCC3)C1

>  <path>  (3) 
/opt/xchem-fragalysis-2/maxwin/BulkDock/SCRATCH/239536/C240-P251/C240-P251.minimised.mol

>  <distance_score>  (3) 
0.844773

>  <energy_score>  (3) 
172.555957

>  <compound>  (3) 
ZBYPJQSKLGOFPL-UHFFFAOYSA-N

>  <compound_id>  (3) 
240

>  <target>  (3) 
A71EV2A

>  <tags>  (3) 
['Fragmenstein placed']

>  <inspirations>  (3) 
A4386a

>  <reference>  (3) 
A4386a

>  <SLURM_JOB_ID>  (3) 
239536

>  <SLURM_JOB_NAME>  (3) 
BulkDock.place:A71EV2A:2A_daren_manual_split1000_batch000

>  <csv_name>  (3) 
2A_daren_manual_split1000_batch000.csv

>  <scratch_subdir>  (3) 
/opt/xchem-fragalysis-2/maxwin/BulkDock/SCRATCH/239536/C240-P251

>  <fragmenstein_runtime>  (3) 
10.444237

>  <fragmenstein_outcome>  (3) 
too contorted

>  <fragmenstein_mode>  (3) 
expansion

>  <fragmenstein_error>  (3) 


$$$$
290
     RDKit          3D

 23 25  0  0  0  0  0  0  0  0999 V2000
    9.0160    8.9361   23.6268 C   0  0  0  0  0  0  0  0  0  0  0  0
    8.9481   10.6980   24.0183 S   0  0  0  0  0  0  0  0  0  0  0  0
    7.5139   10.9010   25.0897 C   0  0  0  0  0  0  0  0  0  0  0  0
    6.9477    9.8129   25.7647 C   0  0  0  0  0  0  0  0  0  0  0  0
    5.9013   10.0353   26.6752 C   0  0  0  0  0  0  0  0  0  0  0  0
    5.1648    9.1483   27.4304 N   0  0  0  0  0  0  0  0  0  0  0  0
    4.2869    9.8239   28.2358 C   0  0  0  0  0  0  0  0  0  0  0  0
    4.4155   11.1656   27.9594 C   0  0  0  0  0  0  0  0  0  0  0  0
    5.4245   11.3069   26.9683 C   0  0  0  0  0  0  0  0  0  0  0  0
    5.9564   12.3936   26.2594 C   0  0  0  0  0  0  0  0  0  0  0  0
    6.9593   12.1836   25.2829 C   0  0  0  0  0  0  0  0  0  0  0  0
    7.2123   13.3157   24.3160 C   0  0  0  0  0  0  0  0  0  0  0  0
    7.8465   14.5929   24.8413 C   0  0  0  0  0  0  0  0  0  0  0  0
    7.4245   15.1762   25.8047 O   0  0  0  0  0  0  0  0  0  0  0  0
    8.8905   14.9379   23.9307 N   0  0  0  0  0  0  0  0  0  0  0  0
   10.2143   14.3656   24.4134 C   0  0  0  0  0  0  0  0  0  0  0  0
   11.4852   14.4184   23.5441 C   0  0  0  0  0  0  0  0  0  0  0  0
   11.2075   15.0377   22.1966 C   0  0  0  0  0  0  0  0  0  0  0  0
   10.3493   16.2770   22.4061 C   0  0  1  0  0  0  0  0  0  0  0  0
    9.2814   16.3690   21.2814 C   0  0  0  0  0  0  0  0  0  0  0  0
    9.9182   16.5493   19.9871 N   0  0  0  0  0  0  0  0  0  0  0  0
    8.1239   16.2626   21.5725 O   0  0  0  0  0  0  0  0  0  0  0  0
    9.7093   16.1732   23.8153 C   0  0  0  0  0  0  0  0  0  0  0  0
  1  2  1  0
  2  3  1  0
  3  4  2  0
  4  5  1  0
  5  6  1  0
  6  7  1  0
  7  8  2  0
  8  9  1  0
  9 10  1  0
 10 11  2  0
 11 12  1  0
 12 13  1  0
 13 14  2  0
 13 15  1  0
 15 16  1  0
 16 17  1  0
 17 18  1  0
 18 19  1  0
 19 20  1  6
 20 21  1  0
 20 22  2  0
 19 23  1  0
 11  3  1  0
 23 15  1  0
  9  5  2  0
M  END
>  <inchikey>  (4) 
GQBIUESTSDLYPT-GFCCVEGCSA-N

>  <alias>  (4) 
None

>  <name>  (4) 
GQBIUESTSDLYPT-GFCCVEGCSA-N

>  <smiles>  (4) 
CSc1cc2[nH]ccc2cc1CC(=O)N1CCC[C@@H](C(N)=O)C1

>  <path>  (4) 
/opt/xchem-fragalysis-2/maxwin/BulkDock/SCRATCH/239536/C241-P251/C241-P251.minimised.mol

>  <distance_score>  (4) 
1.581922

>  <energy_score>  (4) 
155.839526

>  <compound>  (4) 
GQBIUESTSDLYPT-UHFFFAOYSA-N

>  <compound_id>  (4) 
241

>  <target>  (4) 
A71EV2A

>  <tags>  (4) 
['Fragmenstein placed']

>  <inspirations>  (4) 
A4386a

>  <reference>  (4) 
A4386a

>  <SLURM_JOB_ID>  (4) 
239536

>  <SLURM_JOB_NAME>  (4) 
BulkDock.place:A71EV2A:2A_daren_manual_split1000_batch000

>  <csv_name>  (4) 
2A_daren_manual_split1000_batch000.csv

>  <scratch_subdir>  (4) 
/opt/xchem-fragalysis-2/maxwin/BulkDock/SCRATCH/239536/C241-P251

>  <fragmenstein_runtime>  (4) 
13.213758

>  <fragmenstein_outcome>  (4) 
too moved

>  <fragmenstein_mode>  (4) 
expansion

>  <fragmenstein_error>  (4) 


$$$$
292
     RDKit          3D

 22 24  0  0  0  0  0  0  0  0999 V2000
   12.0604   15.4364   19.4005 N   0  0  0  0  0  0  0  0  0  0  0  0
   10.6916   15.5381   19.8519 C   0  0  0  0  0  0  0  0  0  0  0  0
    9.6899   15.7969   19.2497 O   0  0  0  0  0  0  0  0  0  0  0  0
   10.5769   15.2290   21.3555 C   0  0  1  0  0  0  0  0  0  0  0  0
   11.1630   16.3685   22.1687 C   0  0  0  0  0  0  0  0  0  0  0  0
   10.5733   16.2881   23.5544 C   0  0  0  0  0  0  0  0  0  0  0  0
    9.0698   16.0489   23.4353 C   0  0  0  0  0  0  0  0  0  0  0  0
    8.7657   14.5966   23.1483 N   0  0  0  0  0  0  0  0  0  0  0  0
    7.5223   14.2268   23.7483 C   0  0  0  0  0  0  0  0  0  0  0  0
    6.4048   14.2542   23.3093 O   0  0  0  0  0  0  0  0  0  0  0  0
    7.7881   13.8415   25.2041 C   0  0  0  0  0  0  0  0  0  0  0  0
    7.1674   12.5295   25.6007 C   0  0  0  0  0  0  0  0  0  0  0  0
    6.0784   12.5089   26.4943 C   0  0  0  0  0  0  0  0  0  0  0  0
    5.4995   11.3130   26.9010 C   0  0  0  0  0  0  0  0  0  0  0  0
    4.0717   11.3392   28.1410 Br  0  0  0  0  0  0  0  0  0  0  0  0
    5.9747   10.0929   26.4291 C   0  0  0  0  0  0  0  0  0  0  0  0
    7.0610   10.0785   25.5332 C   0  0  0  0  0  0  0  0  0  0  0  0
    7.6466    8.9420   25.0116 N   0  0  0  0  0  0  0  0  0  0  0  0
    8.6296    9.2704   24.2047 C   0  0  0  0  0  0  0  0  0  0  0  0
    8.9259   10.9412   24.0305 S   0  0  0  0  0  0  0  0  0  0  0  0
    7.6353   11.2850   25.1292 C   0  0  0  0  0  0  0  0  0  0  0  0
    9.0887   15.0329   21.7353 C   0  0  0  0  0  0  0  0  0  0  0  0
  1  2  1  0
  2  3  2  0
  4  2  1  6
  4  5  1  0
  5  6  1  0
  6  7  1  0
  7  8  1  0
  8  9  1  0
  9 10  2  0
  9 11  1  0
 11 12  1  0
 12 13  2  0
 13 14  1  0
 14 15  1  0
 14 16  2  0
 16 17  1  0
 17 18  1  0
 18 19  2  0
 19 20  1  0
 20 21  1  0
  8 22  1  0
 22  4  1  0
 21 12  1  0
 21 17  2  0
M  END
>  <inchikey>  (5) 
GBADPXLOLLUCTD-VIFPVBQESA-N

>  <alias>  (5) 
None

>  <name>  (5) 
GBADPXLOLLUCTD-VIFPVBQESA-N

>  <smiles>  (5) 
NC(=O)[C@H]1CCCN(C(=O)Cc2cc(Br)cc3ncsc23)C1

>  <path>  (5) 
/opt/xchem-fragalysis-2/maxwin/BulkDock/SCRATCH/239536/C242-P251/C242-P251.minimised.mol

>  <distance_score>  (5) 
0.837778

>  <energy_score>  (5) 
71.852291

>  <compound>  (5) 
GBADPXLOLLUCTD-UHFFFAOYSA-N

>  <compound_id>  (5) 
242

>  <target>  (5) 
A71EV2A

>  <tags>  (5) 
['Fragmenstein placed']

>  <inspirations>  (5) 
A4386a

>  <reference>  (5) 
A4386a

>  <SLURM_JOB_ID>  (5) 
239536

>  <SLURM_JOB_NAME>  (5) 
BulkDock.place:A71EV2A:2A_daren_manual_split1000_batch000

>  <csv_name>  (5) 
2A_daren_manual_split1000_batch000.csv

>  <scratch_subdir>  (5) 
/opt/xchem-fragalysis-2/maxwin/BulkDock/SCRATCH/239536/C242-P251

>  <fragmenstein_runtime>  (5) 
5.56646

>  <fragmenstein_outcome>  (5) 
too contorted

>  <fragmenstein_mode>  (5) 
expansion

>  <fragmenstein_error>  (5) 


$$$$
295
     RDKit          3D

 22 24  0  0  0  0  0  0  0  0999 V2000
   10.0473   16.4763   18.7791 N   0  0  0  0  0  0  0  0  0  0  0  0
    9.7257   16.8821   20.1283 C   0  0  0  0  0  0  0  0  0  0  0  0
    9.4286   17.9550   20.5699 O   0  0  0  0  0  0  0  0  0  0  0  0
    9.9066   15.7346   21.1216 C   0  0  1  0  0  0  0  0  0  0  0  0
   11.3752   15.7271   21.5260 C   0  0  0  0  0  0  0  0  0  0  0  0
   11.5052   15.1784   22.9231 C   0  0  0  0  0  0  0  0  0  0  0  0
   10.3332   15.6675   23.7672 C   0  0  0  0  0  0  0  0  0  0  0  0
    9.0494   14.9288   23.4386 N   0  0  0  0  0  0  0  0  0  0  0  0
    8.2589   14.7707   24.6168 C   0  0  0  0  0  0  0  0  0  0  0  0
    7.4022   15.4724   25.0835 O   0  0  0  0  0  0  0  0  0  0  0  0
    8.7443   13.5308   25.3484 C   0  0  0  0  0  0  0  0  0  0  0  0
    7.7171   12.4711   25.5990 C   0  0  0  0  0  0  0  0  0  0  0  0
    6.5760   12.6839   26.3989 C   0  0  0  0  0  0  0  0  0  0  0  0
    5.7112   11.6356   26.7432 C   0  0  0  0  0  0  0  0  0  0  0  0
    4.2195   11.9889   27.8538 Br  0  0  0  0  0  0  0  0  0  0  0  0
    5.9424   10.3232   26.3194 C   0  0  0  0  0  0  0  0  0  0  0  0
    7.0548   10.1002   25.5029 C   0  0  0  0  0  0  0  0  0  0  0  0
    7.5410    8.9445   24.9584 N   0  0  0  0  0  0  0  0  0  0  0  0
    8.5969    9.3378   24.2772 C   0  0  0  0  0  0  0  0  0  0  0  0
    8.8786   10.6676   24.3689 O   0  0  0  0  0  0  0  0  0  0  0  0
    7.8779   11.1582   25.1611 C   0  0  0  0  0  0  0  0  0  0  0  0
    8.9880   15.9657   22.3426 C   0  0  0  0  0  0  0  0  0  0  0  0
  1  2  1  0
  2  3  2  0
  4  2  1  6
  4  5  1  0
  5  6  1  0
  6  7  1  0
  7  8  1  0
  8  9  1  0
  9 10  2  0
  9 11  1  0
 11 12  1  0
 12 13  2  0
 13 14  1  0
 14 15  1  0
 14 16  2  0
 16 17  1  0
 17 18  1  0
 18 19  2  0
 19 20  1  0
 20 21  1  0
  8 22  1  0
 22  4  1  0
 21 12  1  0
 21 17  2  0
M  END
>  <inchikey>  (6) 
ZBTIMWNHAAGVMP-VIFPVBQESA-N

>  <alias>  (6) 
None

>  <name>  (6) 
ZBTIMWNHAAGVMP-VIFPVBQESA-N

>  <smiles>  (6) 
NC(=O)[C@H]1CCCN(C(=O)Cc2cc(Br)cc3ncoc23)C1

>  <path>  (6) 
/opt/xchem-fragalysis-2/maxwin/BulkDock/SCRATCH/239536/C244-P251/C244-P251.minimised.mol

>  <distance_score>  (6) 
1.098234

>  <energy_score>  (6) 
-64.860574

>  <compound>  (6) 
ZBTIMWNHAAGVMP-UHFFFAOYSA-N

>  <compound_id>  (6) 
244

>  <target>  (6) 
A71EV2A

>  <tags>  (6) 
['Fragmenstein placed']

>  <inspirations>  (6) 
A4386a

>  <reference>  (6) 
A4386a

>  <SLURM_JOB_ID>  (6) 
239536

>  <SLURM_JOB_NAME>  (6) 
BulkDock.place:A71EV2A:2A_daren_manual_split1000_batch000

>  <csv_name>  (6) 
2A_daren_manual_split1000_batch000.csv

>  <scratch_subdir>  (6) 
/opt/xchem-fragalysis-2/maxwin/BulkDock/SCRATCH/239536/C244-P251

>  <fragmenstein_runtime>  (6) 
6.936442

>  <fragmenstein_outcome>  (6) 
too moved

>  <fragmenstein_mode>  (6) 
expansion

>  <fragmenstein_error>  (6) 


$$$$
296
     RDKit          3D

 22 23  0  0  0  0  0  0  0  0999 V2000
    9.0227    9.0031   23.6992 C   0  0  0  0  0  0  0  0  0  0  0  0
    8.9390   10.7799   24.0249 S   0  0  0  0  0  0  0  0  0  0  0  0
    7.5599   11.0022   25.1559 C   0  0  0  0  0  0  0  0  0  0  0  0
    6.7859    9.9392   25.6477 C   0  0  0  0  0  0  0  0  0  0  0  0
    5.7288   10.1368   26.5539 C   0  0  0  0  0  0  0  0  0  0  0  0
    4.9098    9.0559   26.9205 N   0  0  0  0  0  0  0  0  0  0  0  0
    5.3878   11.4489   26.8982 C   0  0  0  0  0  0  0  0  0  0  0  0
    3.9288   11.8149   28.0602 Br  0  0  0  0  0  0  0  0  0  0  0  0
    6.1385   12.5204   26.4289 C   0  0  0  0  0  0  0  0  0  0  0  0
    7.2389   12.3085   25.5782 C   0  0  0  0  0  0  0  0  0  0  0  0
    8.0312   13.5223   25.1570 C   0  0  0  0  0  0  0  0  0  0  0  0
    7.6220   14.1414   23.8164 C   0  0  0  0  0  0  0  0  0  0  0  0
    6.4719   14.2425   23.4854 O   0  0  0  0  0  0  0  0  0  0  0  0
    8.8154   14.6082   23.1833 N   0  0  0  0  0  0  0  0  0  0  0  0
    9.1585   15.9759   23.6813 C   0  0  0  0  0  0  0  0  0  0  0  0
   10.6803   16.0769   23.8546 C   0  0  0  0  0  0  0  0  0  0  0  0
   11.3650   15.7238   22.5442 C   0  0  0  0  0  0  0  0  0  0  0  0
   10.3471   16.0382   21.4696 C   0  0  1  0  0  0  0  0  0  0  0  0
   10.8208   15.7413   20.0397 C   0  0  0  0  0  0  0  0  0  0  0  0
   10.0696   16.5493   19.0956 N   0  0  0  0  0  0  0  0  0  0  0  0
   11.6731   14.9206   19.8576 O   0  0  0  0  0  0  0  0  0  0  0  0
    9.0279   15.2881   21.8218 C   0  0  0  0  0  0  0  0  0  0  0  0
  1  2  1  0
  2  3  1  0
  3  4  2  0
  4  5  1  0
  5  6  1  0
  5  7  2  0
  7  8  1  0
  7  9  1  0
  9 10  2  0
 10 11  1  0
 11 12  1  0
 12 13  2  0
 12 14  1  0
 14 15  1  0
 15 16  1  0
 16 17  1  0
 17 18  1  0
 18 19  1  6
 19 20  1  0
 19 21  2  0
 18 22  1  0
 10  3  1  0
 22 14  1  0
M  END
>  <inchikey>  (7) 
WTPACGVYMZJJRH-SECBINFHSA-N

>  <alias>  (7) 
None

>  <name>  (7) 
WTPACGVYMZJJRH-SECBINFHSA-N

>  <smiles>  (7) 
CSc1cc(N)c(Br)cc1CC(=O)N1CCC[C@@H](C(N)=O)C1

>  <path>  (7) 
/opt/xchem-fragalysis-2/maxwin/BulkDock/SCRATCH/239536/C245-P251/C245-P251.minimised.mol

>  <distance_score>  (7) 
0.742067

>  <energy_score>  (7) 
157.056542

>  <compound>  (7) 
WTPACGVYMZJJRH-UHFFFAOYSA-N

>  <compound_id>  (7) 
245

>  <target>  (7) 
A71EV2A

>  <tags>  (7) 
['Fragmenstein placed']

>  <inspirations>  (7) 
A4386a

>  <reference>  (7) 
A4386a

>  <SLURM_JOB_ID>  (7) 
239536

>  <SLURM_JOB_NAME>  (7) 
BulkDock.place:A71EV2A:2A_daren_manual_split1000_batch000

>  <csv_name>  (7) 
2A_daren_manual_split1000_batch000.csv

>  <scratch_subdir>  (7) 
/opt/xchem-fragalysis-2/maxwin/BulkDock/SCRATCH/239536/C245-P251

>  <fragmenstein_runtime>  (7) 
8.990543

>  <fragmenstein_outcome>  (7) 
too contorted

>  <fragmenstein_mode>  (7) 
expansion

>  <fragmenstein_error>  (7) 


$$$$
298
     RDKit          3D

 24 26  0  0  0  0  0  0  0  0999 V2000
    9.0508    8.9949   23.6856 C   0  0  0  0  0  0  0  0  0  0  0  0
    8.9997   10.7757   23.9890 S   0  0  0  0  0  0  0  0  0  0  0  0
    7.6207   11.0307   25.1147 C   0  0  0  0  0  0  0  0  0  0  0  0
    6.8548    9.9762   25.6392 C   0  0  0  0  0  0  0  0  0  0  0  0
    5.8059   10.1955   26.5482 C   0  0  0  0  0  0  0  0  0  0  0  0
    5.4766   11.5145   26.8917 C   0  0  0  0  0  0  0  0  0  0  0  0
    6.2161   12.5761   26.3719 C   0  0  0  0  0  0  0  0  0  0  0  0
    7.2978   12.3498   25.4989 C   0  0  0  0  0  0  0  0  0  0  0  0
    8.0621   13.5602   25.0031 C   0  0  0  0  0  0  0  0  0  0  0  0
    7.7433   13.9736   23.5595 C   0  0  0  0  0  0  0  0  0  0  0  0
    6.6222   13.9343   23.1285 O   0  0  0  0  0  0  0  0  0  0  0  0
    8.9534   14.4504   22.9612 N   0  0  0  0  0  0  0  0  0  0  0  0
    9.1558   15.9129   23.2914 C   0  0  0  0  0  0  0  0  0  0  0  0
   10.6369   16.2742   23.4013 C   0  0  0  0  0  0  0  0  0  0  0  0
   11.2006   16.4510   22.0114 C   0  0  0  0  0  0  0  0  0  0  0  0
   10.6771   15.3022   21.1702 C   0  0  2  0  0  0  0  0  0  0  0  0
   10.8234   15.5316   19.6457 C   0  0  0  0  0  0  0  0  0  0  0  0
   10.0673   16.6728   19.1653 N   0  0  0  0  0  0  0  0  0  0  0  0
   11.5110   14.7460   19.0544 O   0  0  0  0  0  0  0  0  0  0  0  0
    9.2306   14.9502   21.5626 C   0  0  0  0  0  0  0  0  0  0  0  0
    4.3433   11.7623   27.7842 C   0  0  0  0  0  0  0  0  0  0  0  0
    3.7784   10.7161   28.4021 C   0  0  0  0  0  0  0  0  0  0  0  0
    4.2463    9.3056   28.2172 C   0  0  0  0  0  0  0  0  0  0  0  0
    5.0038    9.1287   26.9830 N   0  0  0  0  0  0  0  0  0  0  0  0
  1  2  1  0
  2  3  1  0
  3  4  2  0
  4  5  1  0
  5  6  2  0
  6  7  1  0
  7  8  2  0
  8  9  1  0
  9 10  1  0
 10 11  2  0
 10 12  1  0
 12 13  1  0
 13 14  1  0
 14 15  1  0
 15 16  1  0
 16 17  1  6
 17 18  1  0
 17 19  2  0
 16 20  1  0
  6 21  1  0
 21 22  2  0
 22 23  1  0
 23 24  1  0
  8  3  1  0
 20 12  1  0
 24  5  1  0
M  END
>  <inchikey>  (8) 
CRPGHMMEEQOFED-ZDUSSCGKSA-N

>  <alias>  (8) 
None

>  <name>  (8) 
CRPGHMMEEQOFED-ZDUSSCGKSA-N

>  <smiles>  (8) 
CSc1cc2c(cc1CC(=O)N1CCC[C@H](C(N)=O)C1)C=CCN2

>  <path>  (8) 
/opt/xchem-fragalysis-2/maxwin/BulkDock/SCRATCH/239536/C246-P251/C246-P251.minimised.mol

>  <distance_score>  (8) 
0.651076

>  <energy_score>  (8) 
169.302766

>  <compound>  (8) 
CRPGHMMEEQOFED-UHFFFAOYSA-N

>  <compound_id>  (8) 
246

>  <target>  (8) 
A71EV2A

>  <tags>  (8) 
['Fragmenstein placed']

>  <inspirations>  (8) 
A4386a

>  <reference>  (8) 
A4386a

>  <SLURM_JOB_ID>  (8) 
239536

>  <SLURM_JOB_NAME>  (8) 
BulkDock.place:A71EV2A:2A_daren_manual_split1000_batch000

>  <csv_name>  (8) 
2A_daren_manual_split1000_batch000.csv

>  <scratch_subdir>  (8) 
/opt/xchem-fragalysis-2/maxwin/BulkDock/SCRATCH/239536/C246-P251

>  <fragmenstein_runtime>  (8) 
15.68015

>  <fragmenstein_outcome>  (8) 
too contorted

>  <fragmenstein_mode>  (8) 
expansion

>  <fragmenstein_error>  (8) 


$$$$
